@<TRIPOS>MOLECULE
3R135
127   129    1
SMALL
USER_CHARGES


@<TRIPOS>ATOM
      1 CA        -83.1816   24.8268  -72.1263 C.3       0 UNK        -0.1998 
      2 C         -83.8004   25.8115  -73.1060 C.2       0 UNK         0.4909 
      3 O         -85.0179   25.8051  -73.2896 O.2       0 UNK        -0.5240 
      4 N         -82.9704   26.6715  -73.7111 N.am      1 UNK        -0.4739 
      5 CA        -83.3577   27.6868  -74.6956 C.3       1 UNK         0.0864 
      6 C6        -82.3233   28.8406  -74.8793 C.3       11 UNK        -0.0881 
      7 S7        -80.5973   28.4556  -74.4033 S.3       11 UNK        -0.2682 
      8 C8        -80.4671   29.3025  -72.7997 C.3       11 UNK         0.0289 
      9 C9        -79.0746   29.1583  -72.2013 C.ar      11 UNK        -0.0687 
     10 C10       -78.7296   28.0024  -71.4948 C.ar      11 UNK        -0.0823 
     11 C11       -77.4656   27.8781  -70.9090 C.ar      11 UNK        -0.0830 
     12 C12       -76.5455   28.9224  -71.0276 C.ar      11 UNK        -0.1021 
     13 C13       -76.8733   30.0801  -71.7396 C.ar      11 UNK        -0.0753 
     14 C14       -78.1379   30.1897  -72.3289 C.ar      11 UNK        -0.0933 
     15 C15       -75.8787   31.2293  -71.8371 C.3       11 UNK         0.0166 
     16 S16       -74.6308   30.9523  -73.1327 S.3       11 UNK        -0.2615 
     17 C17       -73.4813   29.8016  -72.2988 C.3       11 UNK        -0.0865 
     18 CA        -72.0528   29.8257  -72.9066 C.3       10 UNK         0.0862 
     19 C         -71.0646   28.9274  -72.1053 C.2       10 UNK         0.5551 
     20 N         -70.2630   28.0771  -72.7382 N.am      10 UNK        -0.7319 
     21 O         -71.0109   29.0145  -70.8810 O.2       10 UNK        -0.5018 
     22 N         -72.0721   29.5175  -74.3438 N.am      10 UNK        -0.4509 
     23 C         -71.3331   30.1354  -75.2713 C.2       10 UNK         0.4899 
     24 O         -70.5721   31.0738  -75.0273 O.2       10 UNK        -0.4839 
     25 CA        -71.4741   29.6194  -76.7160 C.3       9 UNK         0.0222 
     26 CB        -70.3316   30.0943  -77.6395 C.3       9 UNK        -0.1966 
     27 N         -71.6443   28.1641  -76.8085 N.am      9 UNK        -0.4218 
     28 C         -70.7863   27.2124  -76.4067 C.2       9 UNK         0.5020 
     29 O         -69.7298   27.4620  -75.8231 O.2       9 UNK        -0.5274 
     30 CA        -71.1522   25.7361  -76.6820 C.3       8 UNK         0.0270 
     31 CB        -70.8463   24.8468  -75.4629 C.3       8 UNK        -0.1976 
     32 N         -72.5506   25.5370  -77.0717 N.am      8 UNK        -0.4313 
     33 C         -73.0665   25.7344  -78.2923 C.2       8 UNK         0.5041 
     34 O         -72.3931   26.0228  -79.2815 O.2       8 UNK        -0.5577 
     35 CA        -74.6020   25.6730  -78.4108 C.3       7 UNK         0.0284 
     36 CB        -75.0742   24.2409  -78.7036 C.3       7 UNK        -0.1958 
     37 N         -75.2833   26.1908  -77.2172 N.am      7 UNK        -0.4454 
     38 C         -75.1868   27.4558  -76.7803 C.2       7 UNK         0.5089 
     39 O         -74.5748   28.3385  -77.3811 O.2       7 UNK        -0.5125 
     40 CA        -75.8219   27.7798  -75.4200 C.3       6 UNK         0.0408 
     41 CB        -77.3034   28.1335  -75.5751 C.3       6 UNK        -0.1791 
     42 N         -75.6649   26.6906  -74.4536 N.am      6 UNK        -0.4762 
     43 C         -74.4949   26.3582  -73.8925 C.2       6 UNK         0.5007 
     44 O         -73.4427   26.9556  -74.1188 O.2       6 UNK        -0.5032 
     45 CA        -74.4760   25.1212  -72.9733 C.3       5 UNK         0.0783 
     46 C46       -74.9217   25.4480  -71.5195 C.3       11 UNK        -0.0857 
     47 S47       -76.7131   25.2323  -71.2080 S.3       11 UNK        -0.2512 
     48 C48       -77.1140   26.6294  -70.1170 C.3       11 UNK         0.0225 
     49 N         -75.2149   23.9936  -73.5481 N.am      5 UNK        -0.4615 
     50 C         -74.9222   23.3709  -74.6950 C.2       4 UNK         0.5053 
     51 O         -73.9273   23.6203  -75.3722 O.2       4 UNK        -0.5105 
     52 CA        -75.9377   22.3271  -75.1923 C.3       4 UNK         0.0263 
     53 CB        -75.6084   20.9417  -74.6148 C.3       4 UNK        -0.1981 
     54 N         -77.3332   22.6683  -74.8870 N.am      4 UNK        -0.4224 
     55 C         -77.9639   23.7709  -75.3151 C.2       3 UNK         0.4895 
     56 O         -77.4326   24.6425  -76.0093 O.2       3 UNK        -0.5091 
     57 CA        -79.4147   23.9481  -74.8545 C.3       3 UNK         0.0250 
     58 CB        -79.4725   24.3961  -73.3848 C.3       3 UNK        -0.1996 
     59 N         -80.0529   24.9609  -75.6877 N.am      3 UNK        -0.4254 
     60 C         -81.3455   24.9996  -76.0213 C.2       2 UNK         0.5004 
     61 O         -82.1779   24.1636  -75.6628 O.2       2 UNK        -0.5226 
     62 CA        -81.7576   26.1590  -76.9410 C.3       2 UNK         0.0269 
     63 CB        -81.3639   25.8350  -78.3928 C.3       2 UNK        -0.1926 
     64 N         -83.1957   26.4341  -76.9094 N.am      2 UNK        -0.4687 
     65 C         -83.9423   27.0975  -76.0094 C.2       1 UNK         0.5165 
     66 O         -85.1447   27.2548  -76.2206 O.2       1 UNK        -0.5079 
     67 H67       -82.9170   23.9033  -72.6410 H         1 UNK         0.0900 
     68 H68       -83.8878   24.5844  -71.3325 H         1 UNK         0.0900 
     69 H69       -82.2866   25.2377  -71.6598 H         1 UNK         0.0900 
     70 H70       -81.9794   26.6290  -73.5207 H         1 UNK         0.2959 
     71 H71       -84.2212   28.1763  -74.2375 H         1 UNK         0.1079 
     72 H72       -82.6467   29.7040  -74.2956 H         1 UNK         0.0837 
     73 H73       -82.3141   29.2014  -75.9097 H         1 UNK         0.0837 
     74 H74       -81.2096   28.8927  -72.1132 H         1 UNK         0.0685 
     75 H75       -80.7131   30.3578  -72.9275 H         1 UNK         0.0685 
     76 H76       -79.4482   27.2005  -71.3948 H         1 UNK         0.1434 
     77 H77       -75.5768   28.8386  -70.5558 H         1 UNK         0.1329 
     78 H78       -78.3993   31.0856  -72.8752 H         1 UNK         0.1335 
     79 H79       -76.4054   32.1580  -72.0618 H         1 UNK         0.0680 
     80 H80       -75.3911   31.3887  -70.8743 H         1 UNK         0.0680 
     81 H81       -73.4372   30.0668  -71.2410 H         1 UNK         0.1032 
     82 H82       -73.9019   28.7980  -72.3418 H         1 UNK         0.1032 
     83 H83       -71.6787   30.8424  -72.7737 H         1 UNK         0.0461 
     84 H84       -69.6256   27.5103  -72.2027 H         1 UNK         0.3453 
     85 H85       -70.2722   28.0096  -73.7476 H         1 UNK         0.3453 
     86 H86       -72.6253   28.7056  -74.5994 H         1 UNK         0.2984 
     87 H87       -72.4001   30.0528  -77.0959 H         1 UNK         0.0554 
     88 H88       -70.4708   29.7361  -78.6594 H         1 UNK         0.0847 
     89 H89       -69.3586   29.7466  -77.2911 H         1 UNK         0.0847 
     90 H90       -70.2902   31.1833  -77.6838 H         1 UNK         0.0847 
     91 H91       -72.5216   27.8695  -77.2224 H         1 UNK         0.3141 
     92 H92       -70.5164   25.4041  -77.5050 H         1 UNK         0.0743 
     93 H93       -69.7892   24.8886  -75.1976 H         1 UNK         0.0784 
     94 H94       -71.4151   25.1581  -74.5864 H         1 UNK         0.0784 
     95 H95       -71.0857   23.8023  -75.6634 H         1 UNK         0.0784 
     96 H96       -73.1762   25.2210  -76.3365 H         1 UNK         0.3213 
     97 H97       -74.8940   26.3052  -79.2522 H         1 UNK         0.0855 
     98 H98       -74.7442   23.5422  -77.9360 H         1 UNK         0.0814 
     99 H99       -74.6719   23.8885  -79.6542 H         1 UNK         0.0814 
    100 H100      -76.1610   24.1830  -78.7682 H         1 UNK         0.0814 
    101 H101      -75.8644   25.5428  -76.6909 H         1 UNK         0.3105 
    102 H102      -75.3129   28.6593  -75.0205 H         1 UNK         0.0547 
    103 H103      -77.7198   28.4423  -74.6185 H         1 UNK         0.0837 
    104 H104      -77.4384   28.9640  -76.2690 H         1 UNK         0.0837 
    105 H105      -77.8910   27.2951  -75.9471 H         1 UNK         0.0837 
    106 H106      -76.4793   26.1267  -74.2566 H         1 UNK         0.3020 
    107 H107      -73.4287   24.8131  -72.9256 H         1 UNK         0.1245 
    108 H108      -74.6068   26.4511  -71.2249 H         1 UNK         0.0781 
    109 H109      -74.4052   24.7743  -70.8341 H         1 UNK         0.0781 
    110 H110      -76.2876   26.8157  -69.4293 H         1 UNK         0.0836 
    111 H111      -77.9652   26.3505  -69.4940 H         1 UNK         0.0836 
    112 H112      -76.0548   23.7311  -73.0528 H         1 UNK         0.3022 
    113 H113      -75.8465   22.2715  -76.2783 H         1 UNK         0.0747 
    114 H114      -76.2579   20.1722  -75.0327 H         1 UNK         0.0793 
    115 H115      -74.5813   20.6567  -74.8479 H         1 UNK         0.0793 
    116 H116      -75.7143   20.9193  -73.5294 H         1 UNK         0.0793 
    117 H117      -77.8427   22.0093  -74.3154 H         1 UNK         0.3047 
    118 H118      -79.9299   22.9924  -74.9732 H         1 UNK         0.0822 
    119 H119      -78.9801   23.6789  -72.7274 H         1 UNK         0.0807 
    120 H120      -80.5014   24.4856  -73.0444 H         1 UNK         0.0807 
    121 H121      -78.9897   25.3638  -73.2417 H         1 UNK         0.0807 
    122 H122      -79.4046   25.6234  -76.0936 H         1 UNK         0.2946 
    123 H123      -81.2162   27.0566  -76.6534 H         1 UNK         0.1144 
    124 H124      -80.2898   25.6666  -78.4840 H         1 UNK         0.0793 
    125 H125      -81.6158   26.6555  -79.0652 H         1 UNK         0.0793 
    126 H126      -81.8653   24.9371  -78.7570 H         1 UNK         0.0793 
    127 H127      -83.6991   26.0449  -77.6923 H         1 UNK         0.2896 
@<TRIPOS>BOND
     1    1    2 1    
     2    1   67 1    
     3    1   68 1    
     4    1   69 1    
     5    2    3 2    
     6    2    4 am   BACKBONE|DICT|INTERRES
     7    4    5 1    
     8    4   70 1    
     9    5    6 1    
    10    5   65 1    
    11    5   71 1    
    12    6    7 1    
    13    6   72 1    
    14    6   73 1    
    15    7    8 1    
    16    8    9 1    
    17    8   74 1    
    18    8   75 1    
    19    9   10 ar   
    20    9   14 ar   
    21   10   11 ar   
    22   10   76 1    
    23   11   12 ar   
    24   11   48 1    
    25   12   13 ar   
    26   12   77 1    
    27   13   14 ar   
    28   13   15 1    
    29   14   78 1    
    30   15   16 1    
    31   15   79 1    
    32   15   80 1    
    33   16   17 1    
    34   17   18 1    
    35   17   81 1    
    36   17   82 1    
    37   18   19 1    
    38   18   22 1    
    39   18   83 1    
    40   19   20 am   BACKBONE|DICT|INTERRES
    41   19   21 2    
    42   20   84 1    
    43   20   85 1    
    44   22   23 am   BACKBONE|DICT|INTERRES
    45   22   86 1    
    46   23   24 2    
    47   23   25 1    
    48   25   26 1    
    49   25   27 1    
    50   25   87 1    
    51   26   88 1    
    52   26   89 1    
    53   26   90 1    
    54   27   28 am   BACKBONE|DICT|INTERRES
    55   27   91 1    
    56   28   29 2    
    57   28   30 1    
    58   30   31 1    
    59   30   32 1    
    60   30   92 1    
    61   31   93 1    
    62   31   94 1    
    63   31   95 1    
    64   32   33 am   BACKBONE|DICT|INTERRES
    65   32   96 1    
    66   33   34 2    
    67   33   35 1    
    68   35   36 1    
    69   35   37 1    
    70   35   97 1    
    71   36   98 1    
    72   36   99 1    
    73   36  100 1    
    74   37   38 am   BACKBONE|DICT|INTERRES
    75   37  101 1    
    76   38   39 2    
    77   38   40 1    
    78   40   41 1    
    79   40   42 1    
    80   40  102 1    
    81   41  103 1    
    82   41  104 1    
    83   41  105 1    
    84   42   43 am   BACKBONE|DICT|INTERRES
    85   42  106 1    
    86   43   44 2    
    87   43   45 1    
    88   45   46 1    
    89   45   49 1    
    90   45  107 1    
    91   46   47 1    
    92   46  108 1    
    93   46  109 1    
    94   47   48 1    
    95   48  110 1    
    96   48  111 1    
    97   49   50 am   BACKBONE|DICT|INTERRES
    98   49  112 1    
    99   50   51 2    
   100   50   52 1    
   101   52   53 1    
   102   52   54 1    
   103   52  113 1    
   104   53  114 1    
   105   53  115 1    
   106   53  116 1    
   107   54   55 am   BACKBONE|DICT|INTERRES
   108   54  117 1    
   109   55   56 2    
   110   55   57 1    
   111   57   58 1    
   112   57   59 1    
   113   57  118 1    
   114   58  119 1    
   115   58  120 1    
   116   58  121 1    
   117   59   60 am   BACKBONE|DICT|INTERRES
   118   59  122 1    
   119   60   61 2    
   120   60   62 1    
   121   62   63 1    
   122   62   64 1    
   123   62  123 1    
   124   63  124 1    
   125   63  125 1    
   126   63  126 1    
   127   64   65 am   BACKBONE|DICT|INTERRES
   128   64  127 1    
   129   65   66 2    
@<TRIPOS>SUBSTRUCTURE
     1 UNK         1 GROUP             0       ****    0 ROOT    
