@<TRIPOS>MOLECULE
3R135
127   129    1
SMALL
USER_CHARGES


@<TRIPOS>ATOM
      1 CA        -78.6598   30.9220  -75.9148 C.3       0 UNK        -0.1998 
      2 C         -79.0128   29.7385  -75.0276 C.2       0 UNK         0.4909 
      3 O         -78.1318   28.9556  -74.6812 O.2       0 UNK        -0.5240 
      4 N         -80.2903   29.6051  -74.6542 N.am      1 UNK        -0.4739 
      5 CA        -80.7924   28.4983  -73.8356 C.3       1 UNK         0.0864 
      6 C6        -82.0591   28.8883  -73.0314 C.3       11 UNK        -0.0881 
      7 S7        -81.8252   30.3350  -71.9474 S.3       11 UNK        -0.2682 
      8 C8        -81.2493   29.5575  -70.4029 C.3       11 UNK         0.0289 
      9 C9        -79.7733   29.1872  -70.4622 C.ar      11 UNK        -0.0687 
     10 C10       -79.3623   27.8533  -70.3480 C.ar      11 UNK        -0.0823 
     11 C11       -78.0013   27.5284  -70.3770 C.ar      11 UNK        -0.0830 
     12 C12       -77.0546   28.5493  -70.4976 C.ar      11 UNK        -0.1021 
     13 C13       -77.4522   29.8804  -70.6386 C.ar      11 UNK        -0.0753 
     14 C14       -78.8128   30.1933  -70.6124 C.ar      11 UNK        -0.0933 
     15 C15       -76.4118   30.9821  -70.7810 C.3       11 UNK         0.0166 
     16 S16       -76.0027   31.3729  -72.5190 S.3       11 UNK        -0.2615 
     17 C17       -75.1744   29.8618  -73.1349 C.3       11 UNK        -0.0865 
     18 CA        -73.6337   29.8554  -72.9385 C.3       10 UNK         0.0862 
     19 C         -73.2503   29.5835  -71.4554 C.2       10 UNK         0.5551 
     20 N         -72.7772   30.5912  -70.7347 N.am      10 UNK        -0.7319 
     21 O         -73.4068   28.4722  -70.9536 O.2       10 UNK        -0.5018 
     22 N         -72.9984   28.8916  -73.8521 N.am      10 UNK        -0.4509 
     23 C         -71.6786   28.6624  -73.9306 C.2       10 UNK         0.4899 
     24 O         -70.8225   29.3403  -73.3615 O.2       10 UNK        -0.4839 
     25 CA        -71.2358   27.4740  -74.7926 C.3       9 UNK         0.0222 
     26 CB        -71.7062   26.1387  -74.1914 C.3       9 UNK        -0.1966 
     27 N         -71.7141   27.6033  -76.1676 N.am      9 UNK        -0.4218 
     28 C         -71.0881   28.3111  -77.1191 C.2       9 UNK         0.5020 
     29 O         -70.0564   28.9534  -76.9129 O.2       9 UNK        -0.5274 
     30 CA        -71.7012   28.3243  -78.5368 C.3       8 UNK         0.0270 
     31 CB        -70.6209   28.2625  -79.6380 C.3       8 UNK        -0.1976 
     32 N         -72.7368   27.3104  -78.7741 N.am      8 UNK        -0.4313 
     33 C         -72.6316   25.9744  -78.7400 C.2       8 UNK         0.5041 
     34 O         -71.5818   25.3759  -78.5008 O.2       8 UNK        -0.5577 
     35 CA        -73.9360   25.1828  -78.9827 C.3       7 UNK         0.0284 
     36 CB        -73.7678   23.6734  -78.7252 C.3       7 UNK        -0.1958 
     37 N         -75.0534   25.6764  -78.1693 N.am      7 UNK        -0.4454 
     38 C         -75.7461   26.8047  -78.3775 C.2       7 UNK         0.5089 
     39 O         -75.5202   27.5698  -79.3159 O.2       7 UNK        -0.5125 
     40 CA        -76.8448   27.1676  -77.3666 C.3       6 UNK         0.0408 
     41 CB        -78.2336   27.0505  -78.0132 C.3       6 UNK        -0.1791 
     42 N         -76.8208   26.3617  -76.1452 N.am      6 UNK        -0.4762 
     43 C         -75.9227   26.4767  -75.1551 C.2       6 UNK         0.5007 
     44 O         -74.9320   27.2097  -75.1980 O.2       6 UNK        -0.5032 
     45 CA        -76.1763   25.5812  -73.9264 C.3       5 UNK         0.0783 
     46 C46       -77.4154   26.1111  -73.1596 C.3       11 UNK        -0.0857 
     47 S47       -77.9772   25.0863  -71.7571 S.3       11 UNK        -0.2512 
     48 C48       -77.5337   26.0795  -70.2896 C.3       11 UNK         0.0225 
     49 N         -76.2943   24.1766  -74.3384 N.am      5 UNK        -0.4615 
     50 C         -75.2956   23.4472  -74.8576 C.2       4 UNK         0.5053 
     51 O         -74.1424   23.8618  -74.9584 O.2       4 UNK        -0.5105 
     52 CA        -75.6157   22.0458  -75.4135 C.3       4 UNK         0.0263 
     53 CB        -75.3882   20.9508  -74.3521 C.3       4 UNK        -0.1981 
     54 N         -76.9337   21.9464  -76.0586 N.am      4 UNK        -0.4224 
     55 C         -78.1397   21.9526  -75.4782 C.2       3 UNK         0.4895 
     56 O         -78.3235   21.9247  -74.2595 O.2       3 UNK        -0.5091 
     57 CA        -79.3473   22.0599  -76.4268 C.3       3 UNK         0.0250 
     58 CB        -79.9167   20.6666  -76.7375 C.3       3 UNK        -0.1996 
     59 N         -80.4029   22.8982  -75.8519 N.am      3 UNK        -0.4254 
     60 C         -80.2478   24.1793  -75.4871 C.2       2 UNK         0.5004 
     61 O         -79.2346   24.8366  -75.7413 O.2       2 UNK        -0.5226 
     62 CA        -81.4091   24.7989  -74.6854 C.3       2 UNK         0.0269 
     63 CB        -81.8785   23.8699  -73.5476 C.3       2 UNK        -0.1926 
     64 N         -81.0495   26.0858  -74.0882 N.am      2 UNK        -0.4687 
     65 C         -81.0999   27.2683  -74.7116 C.2       1 UNK         0.5165 
     66 O         -81.4523   27.4127  -75.8858 O.2       1 UNK        -0.5079 
     67 H67       -77.9115   31.5438  -75.4238 H         1 UNK         0.0900 
     68 H68       -78.2452   30.5699  -76.8589 H         1 UNK         0.0900 
     69 H69       -79.5287   31.5424  -76.1330 H         1 UNK         0.0900 
     70 H70       -80.9850   30.2604  -74.9811 H         1 UNK         0.2959 
     71 H71       -80.0104   28.2157  -73.1276 H         1 UNK         0.1079 
     72 H72       -82.8815   29.1203  -73.7112 H         1 UNK         0.0837 
     73 H73       -82.4054   28.0503  -72.4232 H         1 UNK         0.0837 
     74 H74       -81.8680   28.6893  -70.1709 H         1 UNK         0.0685 
     75 H75       -81.3974   30.2628  -69.5839 H         1 UNK         0.0685 
     76 H76       -80.0964   27.0664  -70.2409 H         1 UNK         0.1434 
     77 H77       -76.0018   28.3044  -70.5016 H         1 UNK         0.1329 
     78 H78       -79.1277   31.2235  -70.7080 H         1 UNK         0.1335 
     79 H79       -75.5112   30.7194  -70.2282 H         1 UNK         0.0680 
     80 H80       -76.7851   31.8922  -70.3090 H         1 UNK         0.0680 
     81 H81       -75.4010   29.8184  -74.2018 H         1 UNK         0.1032 
     82 H82       -75.6348   28.9660  -72.7225 H         1 UNK         0.1032 
     83 H83       -73.2520   30.8379  -73.2234 H         1 UNK         0.0461 
     84 H84       -72.5273   30.4316  -69.7717 H         1 UNK         0.3453 
     85 H85       -72.6492   31.5046  -71.1414 H         1 UNK         0.3453 
     86 H86       -73.6301   28.2771  -74.3596 H         1 UNK         0.2984 
     87 H87       -70.1436   27.4545  -74.8004 H         1 UNK         0.0554 
     88 H88       -71.3208   26.0113  -73.1790 H         1 UNK         0.0847 
     89 H89       -71.3543   25.2921  -74.7813 H         1 UNK         0.0847 
     90 H90       -72.7917   26.0709  -74.1333 H         1 UNK         0.0847 
     91 H91       -72.5745   27.1287  -76.4019 H         1 UNK         0.3141 
     92 H92       -72.2058   29.2873  -78.6280 H         1 UNK         0.0743 
     93 H93       -69.9304   29.1033  -79.5609 H         1 UNK         0.0784 
     94 H94       -70.0284   27.3494  -79.5713 H         1 UNK         0.0784 
     95 H95       -71.0650   28.3026  -80.6326 H         1 UNK         0.0784 
     96 H96       -73.6637   27.6734  -78.9890 H         1 UNK         0.3213 
     97 H97       -74.1941   25.3137  -80.0359 H         1 UNK         0.0855 
     98 H98       -73.4728   23.4722  -77.6946 H         1 UNK         0.0814 
     99 H99       -72.9976   23.2505  -79.3717 H         1 UNK         0.0814 
    100 H100      -74.6901   23.1283  -78.9261 H         1 UNK         0.0814 
    101 H101      -75.2758   25.1501  -77.3373 H         1 UNK         0.3105 
    102 H102      -76.6897   28.2105  -77.0826 H         1 UNK         0.0547 
    103 H103      -78.4570   26.0238  -78.3054 H         1 UNK         0.0837 
    104 H104      -79.0154   27.3788  -77.3279 H         1 UNK         0.0837 
    105 H105      -78.3061   27.6708  -78.9074 H         1 UNK         0.0837 
    106 H106      -77.6218   25.7479  -75.9997 H         1 UNK         0.3020 
    107 H107      -75.3076   25.6643  -73.2694 H         1 UNK         0.1245 
    108 H108      -78.2699   26.2044  -73.8275 H         1 UNK         0.0781 
    109 H109      -77.2192   27.1284  -72.8260 H         1 UNK         0.0781 
    110 H110      -76.4521   26.0307  -70.1535 H         1 UNK         0.0836 
    111 H111      -77.9705   25.6147  -69.4046 H         1 UNK         0.0836 
    112 H112      -77.2115   23.7538  -74.2547 H         1 UNK         0.3022 
    113 H113      -74.8960   21.8644  -76.2135 H         1 UNK         0.0747 
    114 H114      -75.6020   19.9593  -74.7511 H         1 UNK         0.0793 
    115 H115      -74.3499   20.9495  -74.0180 H         1 UNK         0.0793 
    116 H116      -76.0070   21.0990  -73.4669 H         1 UNK         0.0793 
    117 H117      -76.9078   21.9711  -77.0690 H         1 UNK         0.3047 
    118 H118      -79.0264   22.5276  -77.3602 H         1 UNK         0.0822 
    119 H119      -80.7520   20.7244  -77.4358 H         1 UNK         0.0807 
    120 H120      -80.2666   20.1637  -75.8347 H         1 UNK         0.0807 
    121 H121      -79.1594   20.0270  -77.1931 H         1 UNK         0.0807 
    122 H122      -81.2536   22.4241  -75.5878 H         1 UNK         0.2946 
    123 H123      -82.2399   24.9496  -75.3788 H         1 UNK         0.1144 
    124 H124      -82.6497   24.3449  -72.9406 H         1 UNK         0.0793 
    125 H125      -81.0541   23.5977  -72.8862 H         1 UNK         0.0793 
    126 H126      -82.3105   22.9453  -73.9315 H         1 UNK         0.0793 
    127 H127      -80.7171   26.0495  -73.1357 H         1 UNK         0.2896 
@<TRIPOS>BOND
     1    1    2 1    
     2    1   67 1    
     3    1   68 1    
     4    1   69 1    
     5    2    3 2    
     6    2    4 am   BACKBONE|DICT|INTERRES
     7    4    5 1    
     8    4   70 1    
     9    5    6 1    
    10    5   65 1    
    11    5   71 1    
    12    6    7 1    
    13    6   72 1    
    14    6   73 1    
    15    7    8 1    
    16    8    9 1    
    17    8   74 1    
    18    8   75 1    
    19    9   10 ar   
    20    9   14 ar   
    21   10   11 ar   
    22   10   76 1    
    23   11   12 ar   
    24   11   48 1    
    25   12   13 ar   
    26   12   77 1    
    27   13   14 ar   
    28   13   15 1    
    29   14   78 1    
    30   15   16 1    
    31   15   79 1    
    32   15   80 1    
    33   16   17 1    
    34   17   18 1    
    35   17   81 1    
    36   17   82 1    
    37   18   19 1    
    38   18   22 1    
    39   18   83 1    
    40   19   20 am   BACKBONE|DICT|INTERRES
    41   19   21 2    
    42   20   84 1    
    43   20   85 1    
    44   22   23 am   BACKBONE|DICT|INTERRES
    45   22   86 1    
    46   23   24 2    
    47   23   25 1    
    48   25   26 1    
    49   25   27 1    
    50   25   87 1    
    51   26   88 1    
    52   26   89 1    
    53   26   90 1    
    54   27   28 am   BACKBONE|DICT|INTERRES
    55   27   91 1    
    56   28   29 2    
    57   28   30 1    
    58   30   31 1    
    59   30   32 1    
    60   30   92 1    
    61   31   93 1    
    62   31   94 1    
    63   31   95 1    
    64   32   33 am   BACKBONE|DICT|INTERRES
    65   32   96 1    
    66   33   34 2    
    67   33   35 1    
    68   35   36 1    
    69   35   37 1    
    70   35   97 1    
    71   36   98 1    
    72   36   99 1    
    73   36  100 1    
    74   37   38 am   BACKBONE|DICT|INTERRES
    75   37  101 1    
    76   38   39 2    
    77   38   40 1    
    78   40   41 1    
    79   40   42 1    
    80   40  102 1    
    81   41  103 1    
    82   41  104 1    
    83   41  105 1    
    84   42   43 am   BACKBONE|DICT|INTERRES
    85   42  106 1    
    86   43   44 2    
    87   43   45 1    
    88   45   46 1    
    89   45   49 1    
    90   45  107 1    
    91   46   47 1    
    92   46  108 1    
    93   46  109 1    
    94   47   48 1    
    95   48  110 1    
    96   48  111 1    
    97   49   50 am   BACKBONE|DICT|INTERRES
    98   49  112 1    
    99   50   51 2    
   100   50   52 1    
   101   52   53 1    
   102   52   54 1    
   103   52  113 1    
   104   53  114 1    
   105   53  115 1    
   106   53  116 1    
   107   54   55 am   BACKBONE|DICT|INTERRES
   108   54  117 1    
   109   55   56 2    
   110   55   57 1    
   111   57   58 1    
   112   57   59 1    
   113   57  118 1    
   114   58  119 1    
   115   58  120 1    
   116   58  121 1    
   117   59   60 am   BACKBONE|DICT|INTERRES
   118   59  122 1    
   119   60   61 2    
   120   60   62 1    
   121   62   63 1    
   122   62   64 1    
   123   62  123 1    
   124   63  124 1    
   125   63  125 1    
   126   63  126 1    
   127   64   65 am   BACKBONE|DICT|INTERRES
   128   64  127 1    
   129   65   66 2    
@<TRIPOS>SUBSTRUCTURE
     1 UNK         1 GROUP             0       ****    0 ROOT    
