@<TRIPOS>MOLECULE
3R135
127   129    1
SMALL
USER_CHARGES


@<TRIPOS>ATOM
      1 CA        -77.2018   22.0458  -74.9264 C.3       0 UNK        -0.1998 
      2 C         -77.5860   22.6569  -73.5875 C.2       0 UNK         0.4909 
      3 O         -77.2418   22.1082  -72.5407 O.2       0 UNK        -0.5240 
      4 N         -78.3005   23.7863  -73.6180 N.am      1 UNK        -0.4739 
      5 CA        -78.8748   24.4502  -72.4457 C.3       1 UNK         0.0864 
      6 C6        -78.9899   25.9748  -72.6820 C.3       11 UNK        -0.0881 
      7 S7        -79.1909   26.9224  -71.1401 S.3       11 UNK        -0.2682 
      8 C8        -79.6467   28.5604  -71.8005 C.3       11 UNK         0.0289 
      9 C9        -78.5859   29.1395  -72.7303 C.ar      11 UNK        -0.0687 
     10 C10       -78.9344   29.5778  -74.0124 C.ar      11 UNK        -0.0823 
     11 C11       -77.9654   30.1080  -74.8712 C.ar      11 UNK        -0.0830 
     12 C12       -76.6381   30.1969  -74.4378 C.ar      11 UNK        -0.1021 
     13 C13       -76.2810   29.7750  -73.1543 C.ar      11 UNK        -0.0753 
     14 C14       -77.2586   29.2522  -72.3050 C.ar      11 UNK        -0.0933 
     15 C15       -74.8417   29.8822  -72.6794 C.3       11 UNK         0.0166 
     16 S16       -74.5356   31.4744  -71.8579 S.3       11 UNK        -0.2615 
     17 C17       -72.8591   31.2075  -71.1857 C.3       11 UNK        -0.0865 
     18 CA        -71.7614   31.9464  -71.9921 C.3       10 UNK         0.0862 
     19 C         -70.3979   31.8629  -71.2520 C.2       10 UNK         0.5551 
     20 N         -70.0854   32.8437  -70.4166 N.am      10 UNK        -0.7319 
     21 O         -69.6476   30.8989  -71.3945 O.2       10 UNK        -0.5018 
     22 N         -71.6761   31.4372  -73.3668 N.am      10 UNK        -0.4509 
     23 C         -70.9648   31.9854  -74.3564 C.2       10 UNK         0.4899 
     24 O         -70.3639   33.0569  -74.2589 O.2       10 UNK        -0.4839 
     25 CA        -70.9056   31.1776  -75.6678 C.3       9 UNK         0.0222 
     26 CB        -70.2021   31.9429  -76.8047 C.3       9 UNK        -0.1966 
     27 N         -70.2347   29.8882  -75.4742 N.am      9 UNK        -0.4218 
     28 C         -70.7883   28.8072  -74.9112 C.2       9 UNK         0.5020 
     29 O         -71.9436   28.7727  -74.4797 O.2       9 UNK        -0.5274 
     30 CA        -69.8951   27.5701  -74.7591 C.3       8 UNK         0.0270 
     31 CB        -69.4546   27.4042  -73.2952 C.3       8 UNK        -0.1976 
     32 N         -70.6409   26.3857  -75.1776 N.am      8 UNK        -0.4313 
     33 C         -70.7262   25.9516  -76.4415 C.2       8 UNK         0.5041 
     34 O         -70.0753   26.4244  -77.3748 O.2       8 UNK        -0.5577 
     35 CA        -71.7076   24.7975  -76.7164 C.3       7 UNK         0.0284 
     36 CB        -70.9927   23.4417  -76.5947 C.3       7 UNK        -0.1958 
     37 N         -72.8837   24.8100  -75.8388 N.am      7 UNK        -0.4454 
     38 C         -73.8511   25.7362  -75.8836 C.2       7 UNK         0.5089 
     39 O         -73.8606   26.6837  -76.6734 O.2       7 UNK        -0.5125 
     40 CA        -74.9802   25.5807  -74.8475 C.3       6 UNK         0.0408 
     41 CB        -74.5426   26.1495  -73.4884 C.3       6 UNK        -0.1791 
     42 N         -76.2108   26.2553  -75.2636 N.am      6 UNK        -0.4762 
     43 C         -76.9827   25.8720  -76.2889 C.2       6 UNK         0.5007 
     44 O         -76.7668   24.8682  -76.9731 O.2       6 UNK        -0.5032 
     45 CA        -78.1900   26.7811  -76.5949 C.3       5 UNK         0.0783 
     46 C46       -77.7315   28.0658  -77.3278 C.3       11 UNK        -0.0857 
     47 S47       -79.0549   29.3197  -77.3296 S.3       11 UNK        -0.2512 
     48 C48       -78.3515   30.6161  -76.2565 C.3       11 UNK         0.0225 
     49 N         -79.2252   26.0797  -77.3619 N.am      5 UNK        -0.4615 
     50 C         -79.9788   25.0700  -76.9163 C.2       4 UNK         0.5053 
     51 O         -79.9280   24.6191  -75.7671 O.2       4 UNK        -0.5105 
     52 CA        -80.9323   24.4464  -77.9435 C.3       4 UNK         0.0263 
     53 CB        -80.1761   23.4678  -78.8581 C.3       4 UNK        -0.1981 
     54 N         -81.9798   23.7200  -77.2346 N.am      4 UNK        -0.4224 
     55 C         -83.2982   23.8438  -77.4276 C.2       3 UNK         0.4895 
     56 O         -83.8012   24.5256  -78.3217 O.2       3 UNK        -0.5091 
     57 CA        -84.2213   23.0781  -76.4576 C.3       3 UNK         0.0250 
     58 CB        -84.7902   21.8213  -77.1369 C.3       3 UNK        -0.1996 
     59 N         -83.5614   22.6885  -75.2054 N.am      3 UNK        -0.4254 
     60 C         -83.1876   23.5412  -74.2408 C.2       2 UNK         0.5004 
     61 O         -83.4251   24.7495  -74.2694 O.2       2 UNK        -0.5226 
     62 CA        -82.3724   22.9726  -73.0726 C.3       2 UNK         0.0269 
     63 CB        -82.2685   21.4316  -73.0400 C.3       2 UNK        -0.1926 
     64 N         -81.0383   23.5580  -73.1502 N.am      2 UNK        -0.4687 
     65 C         -80.2404   23.8201  -72.1084 C.2       1 UNK         0.5165 
     66 O         -80.5308   23.5616  -70.9392 O.2       1 UNK        -0.5079 
     67 H67       -77.6786   22.5623  -75.7597 H         1 UNK         0.0900 
     68 H68       -77.5033   20.9994  -74.9627 H         1 UNK         0.0900 
     69 H69       -76.1228   22.0963  -75.0681 H         1 UNK         0.0900 
     70 H70       -78.6229   24.1418  -74.5144 H         1 UNK         0.2959 
     71 H71       -78.2118   24.2842  -71.5932 H         1 UNK         0.1079 
     72 H72       -78.0762   26.3381  -73.1525 H         1 UNK         0.0837 
     73 H73       -79.8017   26.2129  -73.3728 H         1 UNK         0.0837 
     74 H74       -80.6080   28.4771  -72.3101 H         1 UNK         0.0685 
     75 H75       -79.7973   29.2472  -70.9666 H         1 UNK         0.0685 
     76 H76       -79.9610   29.5098  -74.3465 H         1 UNK         0.1434 
     77 H77       -75.8815   30.6097  -75.0915 H         1 UNK         0.1329 
     78 H78       -76.9858   28.9279  -71.3099 H         1 UNK         0.1335 
     79 H79       -74.6178   29.0658  -71.9911 H         1 UNK         0.0680 
     80 H80       -74.1627   29.7751  -73.5251 H         1 UNK         0.0680 
     81 H81       -72.6410   30.1392  -71.1281 H         1 UNK         0.1032 
     82 H82       -72.8711   31.5627  -70.1532 H         1 UNK         0.1032 
     83 H83       -72.0417   32.9999  -72.0583 H         1 UNK         0.0461 
     84 H84       -70.6987   33.6335  -70.2863 H         1 UNK         0.3453 
     85 H85       -69.2124   32.8000  -69.9142 H         1 UNK         0.3453 
     86 H86       -72.0717   30.5184  -73.5360 H         1 UNK         0.2984 
     87 H87       -71.9352   30.9935  -75.9827 H         1 UNK         0.0554 
     88 H88       -70.2261   31.3789  -77.7373 H         1 UNK         0.0847 
     89 H89       -69.1589   32.1552  -76.5672 H         1 UNK         0.0847 
     90 H90       -70.6938   32.8980  -76.9944 H         1 UNK         0.0847 
     91 H91       -69.2671   29.8407  -75.7608 H         1 UNK         0.3141 
     92 H92       -69.0029   27.6820  -75.3793 H         1 UNK         0.0743 
     93 H93       -68.8914   28.2753  -72.9567 H         1 UNK         0.0784 
     94 H94       -68.8111   26.5330  -73.1706 H         1 UNK         0.0784 
     95 H95       -70.3078   27.2908  -72.6248 H         1 UNK         0.0784 
     96 H96       -71.2566   25.9768  -74.4910 H         1 UNK         0.3213 
     97 H97       -72.0571   24.9062  -77.7457 H         1 UNK         0.0855 
     98 H98       -70.1274   23.3975  -77.2577 H         1 UNK         0.0814 
     99 H99       -71.6515   22.6183  -76.8714 H         1 UNK         0.0814 
    100 H100      -70.6343   23.2612  -75.5805 H         1 UNK         0.0814 
    101 H101      -72.9560   24.0605  -75.1654 H         1 UNK         0.3105 
    102 H102      -75.2017   24.5184  -74.7275 H         1 UNK         0.0547 
    103 H103      -74.2360   27.1922  -73.5744 H         1 UNK         0.0837 
    104 H104      -73.6938   25.5965  -73.0850 H         1 UNK         0.0837 
    105 H105      -75.3440   26.0911  -72.7514 H         1 UNK         0.0837 
    106 H106      -76.4179   27.1254  -74.7942 H         1 UNK         0.3020 
    107 H107      -78.6301   27.0605  -75.6350 H         1 UNK         0.1245 
    108 H108      -77.4546   27.8446  -78.3603 H         1 UNK         0.0781 
    109 H109      -76.8373   28.4930  -76.8699 H         1 UNK         0.0781 
    110 H110      -79.0837   31.4173  -76.1477 H         1 UNK         0.0836 
    111 H111      -77.4913   31.0586  -76.7617 H         1 UNK         0.0836 
    112 H112      -79.3232   26.3682  -78.3239 H         1 UNK         0.3022 
    113 H113      -81.3638   25.2497  -78.5447 H         1 UNK         0.0747 
    114 H114      -80.8457   23.0114  -79.5873 H         1 UNK         0.0793 
    115 H115      -79.3889   23.9770  -79.4157 H         1 UNK         0.0793 
    116 H116      -79.7048   22.6657  -78.2883 H         1 UNK         0.0793 
    117 H117      -81.6600   23.1907  -76.4364 H         1 UNK         0.3047 
    118 H118      -85.0536   23.7411  -76.2112 H         1 UNK         0.0822 
    119 H119      -85.5030   21.3083  -76.4909 H         1 UNK         0.0807 
    120 H120      -84.0038   21.1131  -77.4012 H         1 UNK         0.0807 
    121 H121      -85.3178   22.0795  -78.0563 H         1 UNK         0.0807 
    122 H122      -83.3321   21.7106  -75.0985 H         1 UNK         0.2946 
    123 H123      -82.8658   23.3090  -72.1576 H         1 UNK         0.1144 
    124 H124      -83.2553   20.9673  -73.0122 H         1 UNK         0.0793 
    125 H125      -81.7393   21.0975  -72.1473 H         1 UNK         0.0793 
    126 H126      -81.7304   21.0365  -73.9025 H         1 UNK         0.0793 
    127 H127      -80.7366   23.8617  -74.0713 H         1 UNK         0.2896 
@<TRIPOS>BOND
     1    1    2 1    
     2    1   67 1    
     3    1   68 1    
     4    1   69 1    
     5    2    3 2    
     6    2    4 am   BACKBONE|DICT|INTERRES
     7    4    5 1    
     8    4   70 1    
     9    5    6 1    
    10    5   65 1    
    11    5   71 1    
    12    6    7 1    
    13    6   72 1    
    14    6   73 1    
    15    7    8 1    
    16    8    9 1    
    17    8   74 1    
    18    8   75 1    
    19    9   10 ar   
    20    9   14 ar   
    21   10   11 ar   
    22   10   76 1    
    23   11   12 ar   
    24   11   48 1    
    25   12   13 ar   
    26   12   77 1    
    27   13   14 ar   
    28   13   15 1    
    29   14   78 1    
    30   15   16 1    
    31   15   79 1    
    32   15   80 1    
    33   16   17 1    
    34   17   18 1    
    35   17   81 1    
    36   17   82 1    
    37   18   19 1    
    38   18   22 1    
    39   18   83 1    
    40   19   20 am   BACKBONE|DICT|INTERRES
    41   19   21 2    
    42   20   84 1    
    43   20   85 1    
    44   22   23 am   BACKBONE|DICT|INTERRES
    45   22   86 1    
    46   23   24 2    
    47   23   25 1    
    48   25   26 1    
    49   25   27 1    
    50   25   87 1    
    51   26   88 1    
    52   26   89 1    
    53   26   90 1    
    54   27   28 am   BACKBONE|DICT|INTERRES
    55   27   91 1    
    56   28   29 2    
    57   28   30 1    
    58   30   31 1    
    59   30   32 1    
    60   30   92 1    
    61   31   93 1    
    62   31   94 1    
    63   31   95 1    
    64   32   33 am   BACKBONE|DICT|INTERRES
    65   32   96 1    
    66   33   34 2    
    67   33   35 1    
    68   35   36 1    
    69   35   37 1    
    70   35   97 1    
    71   36   98 1    
    72   36   99 1    
    73   36  100 1    
    74   37   38 am   BACKBONE|DICT|INTERRES
    75   37  101 1    
    76   38   39 2    
    77   38   40 1    
    78   40   41 1    
    79   40   42 1    
    80   40  102 1    
    81   41  103 1    
    82   41  104 1    
    83   41  105 1    
    84   42   43 am   BACKBONE|DICT|INTERRES
    85   42  106 1    
    86   43   44 2    
    87   43   45 1    
    88   45   46 1    
    89   45   49 1    
    90   45  107 1    
    91   46   47 1    
    92   46  108 1    
    93   46  109 1    
    94   47   48 1    
    95   48  110 1    
    96   48  111 1    
    97   49   50 am   BACKBONE|DICT|INTERRES
    98   49  112 1    
    99   50   51 2    
   100   50   52 1    
   101   52   53 1    
   102   52   54 1    
   103   52  113 1    
   104   53  114 1    
   105   53  115 1    
   106   53  116 1    
   107   54   55 am   BACKBONE|DICT|INTERRES
   108   54  117 1    
   109   55   56 2    
   110   55   57 1    
   111   57   58 1    
   112   57   59 1    
   113   57  118 1    
   114   58  119 1    
   115   58  120 1    
   116   58  121 1    
   117   59   60 am   BACKBONE|DICT|INTERRES
   118   59  122 1    
   119   60   61 2    
   120   60   62 1    
   121   62   63 1    
   122   62   64 1    
   123   62  123 1    
   124   63  124 1    
   125   63  125 1    
   126   63  126 1    
   127   64   65 am   BACKBONE|DICT|INTERRES
   128   64  127 1    
   129   65   66 2    
@<TRIPOS>SUBSTRUCTURE
     1 UNK         1 GROUP             0       ****    0 ROOT    
