@<TRIPOS>MOLECULE
3R135
127   129    1
SMALL
USER_CHARGES


@<TRIPOS>ATOM
      1 CA        -84.4558   26.9194  -75.6871 C.3       0 UNK        -0.1998 
      2 C         -83.7719   28.0545  -74.9400 C.2       0 UNK         0.4909 
      3 O         -83.7738   29.1902  -75.4145 O.2       0 UNK        -0.5240 
      4 N         -83.1784   27.7544  -73.7772 N.am      1 UNK        -0.4739 
      5 CA        -82.4456   28.7087  -72.9317 C.3       1 UNK         0.0864 
      6 C6        -82.2947   28.1785  -71.4834 C.3       11 UNK        -0.0881 
      7 S7        -81.4447   26.5599  -71.3594 S.3       11 UNK        -0.2682 
      8 C8        -80.3615   26.8160  -69.9172 C.3       11 UNK         0.0289 
      9 C9        -78.9298   27.1583  -70.3106 C.ar      11 UNK        -0.0687 
     10 C10       -77.9220   26.1976  -70.1728 C.ar      11 UNK        -0.0823 
     11 C11       -76.5922   26.5124  -70.4677 C.ar      11 UNK        -0.0830 
     12 C12       -76.2740   27.7969  -70.9144 C.ar      11 UNK        -0.1021 
     13 C13       -77.2710   28.7639  -71.0685 C.ar      11 UNK        -0.0753 
     14 C14       -78.5974   28.4408  -70.7620 C.ar      11 UNK        -0.0933 
     15 C15       -76.8934   30.1614  -71.5359 C.3       11 UNK         0.0166 
     16 S16       -76.4259   30.1591  -73.2941 S.3       11 UNK        -0.2615 
     17 C17       -75.1178   31.4328  -73.3515 C.3       11 UNK        -0.0865 
     18 CA        -73.6819   30.8389  -73.4302 C.3       10 UNK         0.0862 
     19 C         -73.1612   30.2816  -72.0741 C.2       10 UNK         0.5551 
     20 N         -72.4808   29.1414  -72.0419 N.am      10 UNK        -0.7319 
     21 O         -73.3531   30.9049  -71.0333 O.2       10 UNK        -0.5018 
     22 N         -73.5308   29.8991  -74.5526 N.am      10 UNK        -0.4509 
     23 C         -73.2653   30.2377  -75.8180 C.2       10 UNK         0.4899 
     24 O         -73.0811   31.3964  -76.1955 O.2       10 UNK        -0.4839 
     25 CA        -73.2019   29.0715  -76.8238 C.3       9 UNK         0.0222 
     26 CB        -72.7048   29.4985  -78.2211 C.3       9 UNK        -0.1966 
     27 N         -72.4298   27.9289  -76.3202 N.am      9 UNK        -0.4218 
     28 C         -71.1313   27.9034  -75.9766 C.2       9 UNK         0.5020 
     29 O         -70.3781   28.8759  -76.0298 O.2       9 UNK        -0.5274 
     30 CA        -70.5750   26.5554  -75.4917 C.3       8 UNK         0.0270 
     31 CB        -70.8547   26.3601  -73.9919 C.3       8 UNK        -0.1976 
     32 N         -71.1522   25.4414  -76.2462 N.am      8 UNK        -0.4313 
     33 C         -70.6223   24.9213  -77.3620 C.2       8 UNK         0.5041 
     34 O         -69.5363   25.2651  -77.8309 O.2       8 UNK        -0.5577 
     35 CA        -71.4371   23.8310  -78.0842 C.3       7 UNK         0.0284 
     36 CB        -71.0239   22.4350  -77.5902 C.3       7 UNK        -0.1958 
     37 N         -72.8850   23.9924  -77.9259 N.am      7 UNK        -0.4454 
     38 C         -73.6045   24.9834  -78.4713 C.2       7 UNK         0.5089 
     39 O         -73.1391   25.8226  -79.2418 O.2       7 UNK        -0.5125 
     40 CA        -75.0912   25.0708  -78.0756 C.3       6 UNK         0.0408 
     41 CB        -75.9590   24.3941  -79.1482 C.3       6 UNK        -0.1791 
     42 N         -75.4230   24.5117  -76.7565 N.am      6 UNK        -0.4762 
     43 C         -74.8858   24.8925  -75.5853 C.2       6 UNK         0.5007 
     44 O         -73.9692   25.7129  -75.5026 O.2       6 UNK        -0.5032 
     45 CA        -75.4537   24.2434  -74.3083 C.3       5 UNK         0.0783 
     46 C46       -75.0610   25.0189  -73.0226 C.3       11 UNK        -0.0857 
     47 S47       -75.5645   24.1445  -71.5028 S.3       11 UNK        -0.2512 
     48 C48       -75.4936   25.4778  -70.2680 C.3       11 UNK         0.0225 
     49 N         -76.9040   24.1011  -74.4480 N.am      5 UNK        -0.4615 
     50 C         -77.5989   22.9772  -74.2287 C.2       4 UNK         0.5053 
     51 O         -77.0846   21.9023  -73.9186 O.2       4 UNK        -0.5105 
     52 CA        -79.1305   23.0519  -74.3814 C.3       4 UNK         0.0263 
     53 CB        -79.7854   23.2810  -73.0086 C.3       4 UNK        -0.1981 
     54 N         -79.5807   24.0988  -75.3008 N.am      4 UNK        -0.4224 
     55 C         -79.3113   24.1461  -76.6132 C.2       3 UNK         0.4895 
     56 O         -78.7198   23.2551  -77.2227 O.2       3 UNK        -0.5091 
     57 CA        -79.7400   25.4181  -77.3696 C.3       3 UNK         0.0250 
     58 CB        -81.0774   25.1833  -78.0905 C.3       3 UNK        -0.1996 
     59 N         -79.8466   26.6278  -76.5426 N.am      3 UNK        -0.4254 
     60 C         -78.8672   27.1607  -75.7927 C.2       2 UNK         0.5004 
     61 O         -77.7531   26.6582  -75.6561 O.2       2 UNK        -0.5226 
     62 CA        -79.2154   28.4391  -75.0288 C.3       2 UNK         0.0269 
     63 CB        -79.0910   29.6737  -75.9432 C.3       2 UNK        -0.1926 
     64 N         -80.5503   28.3242  -74.4442 N.am      2 UNK        -0.4687 
     65 C         -81.0807   29.1317  -73.5185 C.2       1 UNK         0.5165 
     66 O         -80.5405   30.1590  -73.1068 O.2       1 UNK        -0.5079 
     67 H67       -85.5190   27.1310  -75.7973 H         1 UNK         0.0900 
     68 H68       -84.0255   26.8109  -76.6823 H         1 UNK         0.0900 
     69 H69       -84.3521   25.9671  -75.1671 H         1 UNK         0.0900 
     70 H70       -83.2154   26.8085  -73.4222 H         1 UNK         0.2959 
     71 H71       -83.0425   29.6226  -72.8815 H         1 UNK         0.1079 
     72 H72       -83.2835   28.0656  -71.0361 H         1 UNK         0.0837 
     73 H73       -81.7854   28.9207  -70.8664 H         1 UNK         0.0837 
     74 H74       -80.3753   25.9019  -69.3217 H         1 UNK         0.0685 
     75 H75       -80.7642   27.5936  -69.2671 H         1 UNK         0.0685 
     76 H76       -78.1668   25.2050  -69.8197 H         1 UNK         0.1434 
     77 H77       -75.2474   28.0508  -71.1416 H         1 UNK         0.1329 
     78 H78       -79.3688   29.1909  -70.8643 H         1 UNK         0.1335 
     79 H79       -76.0675   30.5235  -70.9229 H         1 UNK         0.0680 
     80 H80       -77.7184   30.8604  -71.3892 H         1 UNK         0.0680 
     81 H81       -75.2183   32.1197  -72.5092 H         1 UNK         0.1032 
     82 H82       -75.2981   32.0429  -74.2376 H         1 UNK         0.1032 
     83 H83       -73.0091   31.6768  -73.6223 H         1 UNK         0.0461 
     84 H84       -72.2400   28.6584  -72.8894 H         1 UNK         0.3453 
     85 H85       -72.1392   28.8052  -71.1554 H         1 UNK         0.3453 
     86 H86       -73.7121   28.9303  -74.3357 H         1 UNK         0.2984 
     87 H87       -74.2265   28.7139  -76.9379 H         1 UNK         0.0554 
     88 H88       -73.3527   30.2641  -78.6493 H         1 UNK         0.0847 
     89 H89       -72.6988   28.6560  -78.9129 H         1 UNK         0.0847 
     90 H90       -71.6956   29.9100  -78.1850 H         1 UNK         0.0847 
     91 H91       -72.9718   27.0814  -76.1616 H         1 UNK         0.3141 
     92 H92       -69.4917   26.5695  -75.6308 H         1 UNK         0.0743 
     93 H93       -70.4371   25.4195  -73.6325 H         1 UNK         0.0784 
     94 H94       -70.3995   27.1589  -73.4048 H         1 UNK         0.0784 
     95 H95       -71.9223   26.3563  -73.7712 H         1 UNK         0.0784 
     96 H96       -72.0775   25.1395  -75.9635 H         1 UNK         0.3213 
     97 H97       -71.2042   23.8993  -79.1493 H         1 UNK         0.0855 
     98 H98       -71.2456   22.2971  -76.5312 H         1 UNK         0.0814 
     99 H99       -69.9522   22.2778  -77.7212 H         1 UNK         0.0814 
    100 H100      -71.5344   21.6490  -78.1470 H         1 UNK         0.0814 
    101 H101      -73.3611   23.3351  -77.3256 H         1 UNK         0.3105 
    102 H102      -75.3522   26.1308  -78.0464 H         1 UNK         0.0547 
    103 H103      -75.7891   23.3175  -79.1852 H         1 UNK         0.0837 
    104 H104      -75.7396   24.7933  -80.1396 H         1 UNK         0.0837 
    105 H105      -77.0195   24.5593  -78.9664 H         1 UNK         0.0837 
    106 H106      -76.1819   23.8435  -76.7318 H         1 UNK         0.3020 
    107 H107      -74.9876   23.2569  -74.2571 H         1 UNK         0.1245 
    108 H108      -75.5072   26.0148  -73.0380 H         1 UNK         0.0781 
    109 H109      -73.9808   25.1635  -72.9673 H         1 UNK         0.0781 
    110 H110      -74.5069   25.9431  -70.2980 H         1 UNK         0.0836 
    111 H111      -75.5925   25.0406  -69.2734 H         1 UNK         0.0836 
    112 H112      -77.3875   24.9403  -74.7572 H         1 UNK         0.3022 
    113 H113      -79.4712   22.0916  -74.7741 H         1 UNK         0.0747 
    114 H114      -80.8733   23.2732  -73.0775 H         1 UNK         0.0793 
    115 H115      -79.5008   22.4970  -72.3054 H         1 UNK         0.0793 
    116 H116      -79.4823   24.2336  -72.5707 H         1 UNK         0.0793 
    117 H117      -80.0734   24.8764  -74.8897 H         1 UNK         0.3047 
    118 H118      -78.9760   25.6154  -78.1235 H         1 UNK         0.0822 
    119 H119      -81.3445   26.0312  -78.7216 H         1 UNK         0.0807 
    120 H120      -81.8932   25.0172  -77.3857 H         1 UNK         0.0807 
    121 H121      -81.0235   24.3068  -78.7381 H         1 UNK         0.0807 
    122 H122      -80.7077   27.1471  -76.6313 H         1 UNK         0.2946 
    123 H123      -78.5032   28.5235  -74.2072 H         1 UNK         0.1144 
    124 H124      -79.1936   30.6009  -75.3799 H         1 UNK         0.0793 
    125 H125      -79.8456   29.6735  -76.7302 H         1 UNK         0.0793 
    126 H126      -78.1120   29.7035  -76.4239 H         1 UNK         0.0793 
    127 H127      -81.0664   27.4856  -74.6645 H         1 UNK         0.2896 
@<TRIPOS>BOND
     1    1    2 1    
     2    1   67 1    
     3    1   68 1    
     4    1   69 1    
     5    2    3 2    
     6    2    4 am   BACKBONE|DICT|INTERRES
     7    4    5 1    
     8    4   70 1    
     9    5    6 1    
    10    5   65 1    
    11    5   71 1    
    12    6    7 1    
    13    6   72 1    
    14    6   73 1    
    15    7    8 1    
    16    8    9 1    
    17    8   74 1    
    18    8   75 1    
    19    9   10 ar   
    20    9   14 ar   
    21   10   11 ar   
    22   10   76 1    
    23   11   12 ar   
    24   11   48 1    
    25   12   13 ar   
    26   12   77 1    
    27   13   14 ar   
    28   13   15 1    
    29   14   78 1    
    30   15   16 1    
    31   15   79 1    
    32   15   80 1    
    33   16   17 1    
    34   17   18 1    
    35   17   81 1    
    36   17   82 1    
    37   18   19 1    
    38   18   22 1    
    39   18   83 1    
    40   19   20 am   BACKBONE|DICT|INTERRES
    41   19   21 2    
    42   20   84 1    
    43   20   85 1    
    44   22   23 am   BACKBONE|DICT|INTERRES
    45   22   86 1    
    46   23   24 2    
    47   23   25 1    
    48   25   26 1    
    49   25   27 1    
    50   25   87 1    
    51   26   88 1    
    52   26   89 1    
    53   26   90 1    
    54   27   28 am   BACKBONE|DICT|INTERRES
    55   27   91 1    
    56   28   29 2    
    57   28   30 1    
    58   30   31 1    
    59   30   32 1    
    60   30   92 1    
    61   31   93 1    
    62   31   94 1    
    63   31   95 1    
    64   32   33 am   BACKBONE|DICT|INTERRES
    65   32   96 1    
    66   33   34 2    
    67   33   35 1    
    68   35   36 1    
    69   35   37 1    
    70   35   97 1    
    71   36   98 1    
    72   36   99 1    
    73   36  100 1    
    74   37   38 am   BACKBONE|DICT|INTERRES
    75   37  101 1    
    76   38   39 2    
    77   38   40 1    
    78   40   41 1    
    79   40   42 1    
    80   40  102 1    
    81   41  103 1    
    82   41  104 1    
    83   41  105 1    
    84   42   43 am   BACKBONE|DICT|INTERRES
    85   42  106 1    
    86   43   44 2    
    87   43   45 1    
    88   45   46 1    
    89   45   49 1    
    90   45  107 1    
    91   46   47 1    
    92   46  108 1    
    93   46  109 1    
    94   47   48 1    
    95   48  110 1    
    96   48  111 1    
    97   49   50 am   BACKBONE|DICT|INTERRES
    98   49  112 1    
    99   50   51 2    
   100   50   52 1    
   101   52   53 1    
   102   52   54 1    
   103   52  113 1    
   104   53  114 1    
   105   53  115 1    
   106   53  116 1    
   107   54   55 am   BACKBONE|DICT|INTERRES
   108   54  117 1    
   109   55   56 2    
   110   55   57 1    
   111   57   58 1    
   112   57   59 1    
   113   57  118 1    
   114   58  119 1    
   115   58  120 1    
   116   58  121 1    
   117   59   60 am   BACKBONE|DICT|INTERRES
   118   59  122 1    
   119   60   61 2    
   120   60   62 1    
   121   62   63 1    
   122   62   64 1    
   123   62  123 1    
   124   63  124 1    
   125   63  125 1    
   126   63  126 1    
   127   64   65 am   BACKBONE|DICT|INTERRES
   128   64  127 1    
   129   65   66 2    
@<TRIPOS>SUBSTRUCTURE
     1 UNK         1 GROUP             0       ****    0 ROOT    
