@<TRIPOS>MOLECULE
3R135
127   129    1
SMALL
USER_CHARGES


@<TRIPOS>ATOM
      1 CA        -83.3985   28.5666  -75.3248 C.3       0 UNK        -0.1998 
      2 C         -81.9530   29.0573  -75.3529 C.2       0 UNK         0.4909 
      3 O         -81.5871   29.7630  -76.2907 O.2       0 UNK        -0.5240 
      4 N         -81.0843   28.7271  -74.3837 N.am      1 UNK        -0.4739 
      5 CA        -81.2734   27.9079  -73.1728 C.3       1 UNK         0.0864 
      6 C6        -82.0593   28.6132  -72.0290 C.3       11 UNK        -0.0881 
      7 S7        -81.4662   30.3061  -71.6648 S.3       11 UNK        -0.2682 
      8 C8        -80.4860   30.0877  -70.1428 C.3       11 UNK         0.0289 
      9 C9        -79.1112   29.5039  -70.4343 C.ar      11 UNK        -0.0687 
     10 C10       -78.8932   28.1293  -70.3148 C.ar      11 UNK        -0.0823 
     11 C11       -77.6482   27.5830  -70.6344 C.ar      11 UNK        -0.0830 
     12 C12       -76.6064   28.4225  -71.0358 C.ar      11 UNK        -0.1021 
     13 C13       -76.8018   29.8026  -71.1426 C.ar      11 UNK        -0.0753 
     14 C14       -78.0606   30.3359  -70.8404 C.ar      11 UNK        -0.0933 
     15 C15       -75.6842   30.7125  -71.6469 C.3       11 UNK         0.0166 
     16 S16       -74.0487   30.3104  -70.9421 S.3       11 UNK        -0.2615 
     17 C17       -73.0102   31.6156  -71.6864 C.3       11 UNK        -0.0865 
     18 CA        -71.8824   31.0991  -72.6219 C.3       10 UNK         0.0862 
     19 C         -70.7342   30.3614  -71.8686 C.2       10 UNK         0.5551 
     20 N         -70.1977   29.2583  -72.3783 N.am      10 UNK        -0.7319 
     21 O         -70.3021   30.8108  -70.8097 O.2       10 UNK        -0.5018 
     22 N         -72.4164   30.3639  -73.7818 N.am      10 UNK        -0.4509 
     23 C         -71.9361   30.4634  -75.0274 C.2       10 UNK         0.4899 
     24 O         -71.0398   31.2440  -75.3541 O.2       10 UNK        -0.4839 
     25 CA        -72.5550   29.5186  -76.0767 C.3       9 UNK         0.0222 
     26 CB        -71.8856   29.6517  -77.4608 C.3       9 UNK        -0.1966 
     27 N         -72.5727   28.1086  -75.6668 N.am      9 UNK        -0.4218 
     28 C         -71.5375   27.3553  -75.2638 C.2       9 UNK         0.5020 
     29 O         -70.4069   27.7913  -75.0435 O.2       9 UNK        -0.5274 
     30 CA        -71.8055   25.8505  -75.0800 C.3       8 UNK         0.0270 
     31 CB        -72.4053   25.5721  -73.6919 C.3       8 UNK        -0.1976 
     32 N         -72.6694   25.2854  -76.1242 N.am      8 UNK        -0.4313 
     33 C         -72.3335   25.1776  -77.4196 C.2       8 UNK         0.5041 
     34 O         -71.2288   25.4865  -77.8683 O.2       8 UNK        -0.5577 
     35 CA        -73.4090   24.6464  -78.3859 C.3       7 UNK         0.0284 
     36 CB        -73.4622   23.1102  -78.3684 C.3       7 UNK        -0.1958 
     37 N         -74.7364   25.1958  -78.1019 N.am      7 UNK        -0.4454 
     38 C         -75.0866   26.4717  -78.3222 C.2       7 UNK         0.5089 
     39 O         -74.3683   27.2915  -78.8934 O.2       7 UNK        -0.5125 
     40 CA        -76.4555   26.9239  -77.7836 C.3       6 UNK         0.0408 
     41 CB        -77.5620   26.6769  -78.8203 C.3       6 UNK        -0.1791 
     42 N         -76.8120   26.2749  -76.5202 N.am      6 UNK        -0.4762 
     43 C         -76.1386   26.4195  -75.3695 C.2       6 UNK         0.5007 
     44 O         -75.1742   27.1705  -75.2324 O.2       6 UNK        -0.5032 
     45 CA        -76.5909   25.5464  -74.1855 C.3       5 UNK         0.0783 
     46 C46       -77.7782   26.2084  -73.4624 C.3       11 UNK        -0.0857 
     47 S47       -78.3419   25.2739  -71.9954 S.3       11 UNK        -0.2512 
     48 C48       -77.4447   26.0773  -70.6272 C.3       11 UNK         0.0225 
     49 N         -76.8963   24.1822  -74.6178 N.am      5 UNK        -0.4615 
     50 C         -75.9896   23.3043  -75.0605 C.2       4 UNK         0.5053 
     51 O         -74.7845   23.5436  -75.1224 O.2       4 UNK        -0.5105 
     52 CA        -76.5268   21.9503  -75.5526 C.3       4 UNK         0.0263 
     53 CB        -76.6694   20.9695  -74.3784 C.3       4 UNK        -0.1981 
     54 N         -77.8122   22.0765  -76.2473 N.am      4 UNK        -0.4224 
     55 C         -77.9741   22.6941  -77.4270 C.2       3 UNK         0.4895 
     56 O         -77.0465   23.1732  -78.0798 O.2       3 UNK        -0.5091 
     57 CA        -79.4204   22.8456  -77.9359 C.3       3 UNK         0.0250 
     58 CB        -79.8817   21.5649  -78.6496 C.3       3 UNK        -0.1996 
     59 N         -80.3785   23.1979  -76.8777 N.am      3 UNK        -0.4254 
     60 C         -80.3199   24.3292  -76.1615 C.2       2 UNK         0.5004 
     61 O         -79.4562   25.1939  -76.3381 O.2       2 UNK        -0.5226 
     62 CA        -81.3541   24.5142  -75.0378 C.3       2 UNK         0.0269 
     63 CB        -81.1499   23.4406  -73.9457 C.3       2 UNK        -0.1926 
     64 N         -81.1616   25.8640  -74.5051 N.am      2 UNK        -0.4687 
     65 C         -81.7798   26.4800  -73.4904 C.2       1 UNK         0.5165 
     66 O         -82.7147   25.9926  -72.8540 O.2       1 UNK        -0.5079 
     67 H67       -83.4606   27.5430  -75.6926 H         1 UNK         0.0900 
     68 H68       -83.8328   28.6085  -74.3298 H         1 UNK         0.0900 
     69 H69       -84.0184   29.1876  -75.9711 H         1 UNK         0.0900 
     70 H70       -80.1521   29.1061  -74.4705 H         1 UNK         0.2959 
     71 H71       -80.2650   27.7546  -72.7870 H         1 UNK         0.1079 
     72 H72       -82.0041   28.0161  -71.1171 H         1 UNK         0.0837 
     73 H73       -83.1212   28.6802  -72.2615 H         1 UNK         0.0837 
     74 H74       -81.0324   29.4641  -69.4335 H         1 UNK         0.0685 
     75 H75       -80.3701   31.0599  -69.6613 H         1 UNK         0.0685 
     76 H76       -79.7027   27.4770  -70.0166 H         1 UNK         0.1434 
     77 H77       -75.6500   27.9947  -71.3035 H         1 UNK         0.1329 
     78 H78       -78.2334   31.3987  -70.9419 H         1 UNK         0.1335 
     79 H79       -75.9153   31.7533  -71.4143 H         1 UNK         0.0680 
     80 H80       -75.6339   30.6355  -72.7339 H         1 UNK         0.0680 
     81 H81       -72.5866   32.2137  -70.8773 H         1 UNK         0.1032 
     82 H82       -73.6429   32.3074  -72.2443 H         1 UNK         0.1032 
     83 H83       -71.3987   32.0023  -72.9981 H         1 UNK         0.0461 
     84 H84       -69.4508   28.8035  -71.8782 H         1 UNK         0.3453 
     85 H85       -70.4794   28.9070  -73.2853 H         1 UNK         0.3453 
     86 H86       -73.1286   29.6767  -73.5809 H         1 UNK         0.2984 
     87 H87       -73.5987   29.8177  -76.1843 H         1 UNK         0.0554 
     88 H88       -71.9490   30.6752  -77.8321 H         1 UNK         0.0847 
     89 H89       -72.3686   29.0106  -78.1981 H         1 UNK         0.0847 
     90 H90       -70.8297   29.3806  -77.4255 H         1 UNK         0.0847 
     91 H91       -73.4885   27.6617  -75.6997 H         1 UNK         0.3141 
     92 H92       -70.8438   25.3365  -75.1392 H         1 UNK         0.0743 
     93 H93       -71.7398   25.9267  -72.9035 H         1 UNK         0.0784 
     94 H94       -73.3636   26.0720  -73.5549 H         1 UNK         0.0784 
     95 H95       -72.5578   24.5045  -73.5317 H         1 UNK         0.0784 
     96 H96       -73.5684   24.9174  -75.8262 H         1 UNK         0.3213 
     97 H97       -73.1280   24.9582  -79.3944 H         1 UNK         0.0855 
     98 H98       -73.7199   22.7206  -77.3841 H         1 UNK         0.0814 
     99 H99       -72.4953   22.6860  -78.6418 H         1 UNK         0.0814 
    100 H100      -74.1963   22.7309  -79.0797 H         1 UNK         0.0814 
    101 H101      -75.4231   24.5701  -77.6964 H         1 UNK         0.3105 
    102 H102      -76.3990   27.9984  -77.5974 H         1 UNK         0.0547 
    103 H103      -78.5256   27.0445  -78.4671 H         1 UNK         0.0837 
    104 H104      -77.6732   25.6170  -79.0492 H         1 UNK         0.0837 
    105 H105      -77.3407   27.1912  -79.7563 H         1 UNK         0.0837 
    106 H106      -77.6420   25.6857  -76.5283 H         1 UNK         0.3020 
    107 H107      -75.7549   25.4939  -73.4847 H         1 UNK         0.1245 
    108 H108      -78.6204   26.2922  -74.1429 H         1 UNK         0.0781 
    109 H109      -77.5384   27.2368  -73.2000 H         1 UNK         0.0781 
    110 H110      -76.3854   25.8261  -70.6998 H         1 UNK         0.0836 
    111 H111      -77.7936   25.6653  -69.6793 H         1 UNK         0.0836 
    112 H112      -77.8694   23.9193  -74.6106 H         1 UNK         0.3022 
    113 H113      -75.7989   21.5405  -76.2562 H         1 UNK         0.0747 
    114 H114      -76.9802   19.9824  -74.7214 H         1 UNK         0.0793 
    115 H115      -75.7185   20.8451  -73.8582 H         1 UNK         0.0793 
    116 H116      -77.3987   21.3164  -73.6450 H         1 UNK         0.0793 
    117 H117      -78.6263   21.7012  -75.7832 H         1 UNK         0.3047 
    118 H118      -79.4226   23.6586  -78.6653 H         1 UNK         0.0822 
    119 H119      -80.8643   21.6958  -79.1034 H         1 UNK         0.0807 
    120 H120      -79.9369   20.7158  -77.9672 H         1 UNK         0.0807 
    121 H121      -79.1914   21.2951  -79.4503 H         1 UNK         0.0807 
    122 H122      -81.1136   22.5317  -76.6874 H         1 UNK         0.2946 
    123 H123      -82.3576   24.4403  -75.4612 H         1 UNK         0.1144 
    124 H124      -80.1499   23.4864  -73.5153 H         1 UNK         0.0793 
    125 H125      -81.2850   22.4354  -74.3458 H         1 UNK         0.0793 
    126 H126      -81.8661   23.5456  -73.1315 H         1 UNK         0.0793 
    127 H127      -80.4380   26.3652  -75.0089 H         1 UNK         0.2896 
@<TRIPOS>BOND
     1    1    2 1    
     2    1   67 1    
     3    1   68 1    
     4    1   69 1    
     5    2    3 2    
     6    2    4 am   BACKBONE|DICT|INTERRES
     7    4    5 1    
     8    4   70 1    
     9    5    6 1    
    10    5   65 1    
    11    5   71 1    
    12    6    7 1    
    13    6   72 1    
    14    6   73 1    
    15    7    8 1    
    16    8    9 1    
    17    8   74 1    
    18    8   75 1    
    19    9   10 ar   
    20    9   14 ar   
    21   10   11 ar   
    22   10   76 1    
    23   11   12 ar   
    24   11   48 1    
    25   12   13 ar   
    26   12   77 1    
    27   13   14 ar   
    28   13   15 1    
    29   14   78 1    
    30   15   16 1    
    31   15   79 1    
    32   15   80 1    
    33   16   17 1    
    34   17   18 1    
    35   17   81 1    
    36   17   82 1    
    37   18   19 1    
    38   18   22 1    
    39   18   83 1    
    40   19   20 am   BACKBONE|DICT|INTERRES
    41   19   21 2    
    42   20   84 1    
    43   20   85 1    
    44   22   23 am   BACKBONE|DICT|INTERRES
    45   22   86 1    
    46   23   24 2    
    47   23   25 1    
    48   25   26 1    
    49   25   27 1    
    50   25   87 1    
    51   26   88 1    
    52   26   89 1    
    53   26   90 1    
    54   27   28 am   BACKBONE|DICT|INTERRES
    55   27   91 1    
    56   28   29 2    
    57   28   30 1    
    58   30   31 1    
    59   30   32 1    
    60   30   92 1    
    61   31   93 1    
    62   31   94 1    
    63   31   95 1    
    64   32   33 am   BACKBONE|DICT|INTERRES
    65   32   96 1    
    66   33   34 2    
    67   33   35 1    
    68   35   36 1    
    69   35   37 1    
    70   35   97 1    
    71   36   98 1    
    72   36   99 1    
    73   36  100 1    
    74   37   38 am   BACKBONE|DICT|INTERRES
    75   37  101 1    
    76   38   39 2    
    77   38   40 1    
    78   40   41 1    
    79   40   42 1    
    80   40  102 1    
    81   41  103 1    
    82   41  104 1    
    83   41  105 1    
    84   42   43 am   BACKBONE|DICT|INTERRES
    85   42  106 1    
    86   43   44 2    
    87   43   45 1    
    88   45   46 1    
    89   45   49 1    
    90   45  107 1    
    91   46   47 1    
    92   46  108 1    
    93   46  109 1    
    94   47   48 1    
    95   48  110 1    
    96   48  111 1    
    97   49   50 am   BACKBONE|DICT|INTERRES
    98   49  112 1    
    99   50   51 2    
   100   50   52 1    
   101   52   53 1    
   102   52   54 1    
   103   52  113 1    
   104   53  114 1    
   105   53  115 1    
   106   53  116 1    
   107   54   55 am   BACKBONE|DICT|INTERRES
   108   54  117 1    
   109   55   56 2    
   110   55   57 1    
   111   57   58 1    
   112   57   59 1    
   113   57  118 1    
   114   58  119 1    
   115   58  120 1    
   116   58  121 1    
   117   59   60 am   BACKBONE|DICT|INTERRES
   118   59  122 1    
   119   60   61 2    
   120   60   62 1    
   121   62   63 1    
   122   62   64 1    
   123   62  123 1    
   124   63  124 1    
   125   63  125 1    
   126   63  126 1    
   127   64   65 am   BACKBONE|DICT|INTERRES
   128   64  127 1    
   129   65   66 2    
@<TRIPOS>SUBSTRUCTURE
     1 UNK         1 GROUP             0       ****    0 ROOT    
