@<TRIPOS>MOLECULE
3R135
127   129    1
SMALL
USER_CHARGES


@<TRIPOS>ATOM
      1 CA        -84.2465   25.1330  -74.5506 C.3       0 UNK        -0.1998 
      2 C         -83.2526   26.2835  -74.5013 C.2       0 UNK         0.4909 
      3 O         -82.8757   26.8163  -75.5461 O.2       0 UNK        -0.5240 
      4 N         -82.8256   26.6752  -73.2938 N.am      1 UNK        -0.4739 
      5 CA        -81.8226   27.7179  -73.0577 C.3       1 UNK         0.0864 
      6 C6        -81.7257   28.0677  -71.5528 C.3       11 UNK        -0.0881 
      7 S7        -80.9953   29.7136  -71.2617 S.3       11 UNK        -0.2682 
      8 C8        -79.6413   29.3277  -70.1067 C.3       11 UNK         0.0289 
      9 C9        -78.3591   28.9363  -70.8275 C.ar      11 UNK        -0.0687 
     10 C10       -78.0168   27.5908  -71.0033 C.ar      11 UNK        -0.0823 
     11 C11       -76.8130   27.2372  -71.6239 C.ar      11 UNK        -0.0830 
     12 C12       -75.9496   28.2445  -72.0632 C.ar      11 UNK        -0.1021 
     13 C13       -76.2805   29.5926  -71.8950 C.ar      11 UNK        -0.0753 
     14 C14       -77.4882   29.9318  -71.2803 C.ar      11 UNK        -0.0933 
     15 C15       -75.3205   30.6807  -72.3491 C.3       11 UNK         0.0166 
     16 S16       -75.6910   31.2244  -74.0423 S.3       11 UNK        -0.2615 
     17 C17       -74.2611   32.3046  -74.4016 C.3       11 UNK        -0.0865 
     18 CA        -73.1427   31.5385  -75.1663 C.3       10 UNK         0.0862 
     19 C         -72.2043   32.4517  -76.0155 C.2       10 UNK         0.5551 
     20 N         -70.9948   32.0127  -76.3432 N.am      10 UNK        -0.7319 
     21 O         -72.5801   33.5520  -76.4132 O.2       10 UNK        -0.5018 
     22 N         -72.4544   30.5611  -74.3038 N.am      10 UNK        -0.4509 
     23 C         -71.5400   30.8185  -73.3558 C.2       10 UNK         0.4899 
     24 O         -71.1469   31.9521  -73.0791 O.2       10 UNK        -0.4839 
     25 CA        -70.9632   29.6273  -72.5598 C.3       9 UNK         0.0222 
     26 CB        -71.3358   29.7351  -71.0706 C.3       9 UNK        -0.1966 
     27 N         -71.3814   28.3129  -73.0539 N.am      9 UNK        -0.4218 
     28 C         -70.9378   27.7147  -74.1678 C.2       9 UNK         0.5020 
     29 O         -70.0591   28.1808  -74.8948 O.2       9 UNK        -0.5274 
     30 CA        -71.6187   26.3872  -74.5615 C.3       8 UNK         0.0270 
     31 CB        -72.2715   25.6435  -73.3726 C.3       8 UNK        -0.1976 
     32 N         -72.5990   26.5747  -75.6378 N.am      8 UNK        -0.4313 
     33 C         -73.6307   27.4296  -75.6532 C.2       8 UNK         0.5041 
     34 O         -73.8882   28.1994  -74.7322 O.2       8 UNK        -0.5577 
     35 CA        -74.5392   27.4442  -76.8894 C.3       7 UNK         0.0284 
     36 CB        -73.9004   28.2209  -78.0572 C.3       7 UNK        -0.1958 
     37 N         -75.0117   26.1166  -77.2923 N.am      7 UNK        -0.4454 
     38 C         -74.3111   25.0965  -77.8029 C.2       7 UNK         0.5089 
     39 O         -73.1046   25.1416  -78.0550 O.2       7 UNK        -0.5125 
     40 CA        -75.1063   23.7982  -78.0129 C.3       6 UNK         0.0408 
     41 CB        -74.2700   22.6676  -78.6484 C.3       6 UNK        -0.1791 
     42 N         -75.7408   23.3495  -76.7686 N.am      6 UNK        -0.4762 
     43 C         -75.1424   22.9850  -75.6206 C.2       6 UNK         0.5007 
     44 O         -73.9224   22.9744  -75.4541 O.2       6 UNK        -0.5032 
     45 CA        -76.0584   22.5139  -74.4671 C.3       5 UNK         0.0783 
     46 C46       -75.9968   23.4429  -73.2265 C.3       11 UNK        -0.0857 
     47 S47       -76.5976   25.1491  -73.4700 S.3       11 UNK        -0.2512 
     48 C48       -76.4137   25.7730  -71.7674 C.3       11 UNK         0.0225 
     49 N         -77.4305   22.2370  -74.9170 N.am      5 UNK        -0.4615 
     50 C         -77.7883   21.1308  -75.5864 C.2       4 UNK         0.5053 
     51 O         -77.0301   20.1778  -75.7673 O.2       4 UNK        -0.5105 
     52 CA        -79.1931   21.0799  -76.2160 C.3       4 UNK         0.0263 
     53 CB        -80.2450   20.5605  -75.2151 C.3       4 UNK        -0.1981 
     54 N         -79.6043   22.3348  -76.8671 N.am      4 UNK        -0.4224 
     55 C         -79.9323   23.4965  -76.2874 C.2       3 UNK         0.4895 
     56 O         -79.9841   23.6586  -75.0677 O.2       3 UNK        -0.5091 
     57 CA        -80.2432   24.6665  -77.2371 C.3       3 UNK         0.0250 
     58 CB        -81.6871   24.5793  -77.7563 C.3       3 UNK        -0.1996 
     59 N         -80.0384   25.9532  -76.5674 N.am      3 UNK        -0.4254 
     60 C         -78.8292   26.4630  -76.2853 C.2       2 UNK         0.5004 
     61 O         -77.7777   25.9723  -76.7036 O.2       2 UNK        -0.5226 
     62 CA        -78.7642   27.7337  -75.4121 C.3       2 UNK         0.0269 
     63 CB        -78.4215   28.9619  -76.2718 C.3       2 UNK        -0.1926 
     64 N         -79.9934   28.0181  -74.6656 N.am      2 UNK        -0.4687 
     65 C         -80.4632   27.2876  -73.6449 C.2       1 UNK         0.5165 
     66 O         -79.9030   26.2922  -73.1878 O.2       1 UNK        -0.5079 
     67 H67       -85.0576   25.3648  -75.2405 H         1 UNK         0.0900 
     68 H68       -84.6833   24.9332  -73.5723 H         1 UNK         0.0900 
     69 H69       -83.7528   24.2249  -74.8949 H         1 UNK         0.0900 
     70 H70       -83.1451   26.1803  -72.4734 H         1 UNK         0.2959 
     71 H71       -82.1689   28.6072  -73.5897 H         1 UNK         0.1079 
     72 H72       -82.7246   28.0949  -71.1142 H         1 UNK         0.0837 
     73 H73       -81.1848   27.2964  -71.0013 H         1 UNK         0.0837 
     74 H74       -79.4521   30.2102  -69.4935 H         1 UNK         0.0685 
     75 H75       -79.9501   28.5459  -69.4111 H         1 UNK         0.0685 
     76 H76       -78.6857   26.8169  -70.6529 H         1 UNK         0.1434 
     77 H77       -75.0138   27.9757  -72.5303 H         1 UNK         0.1329 
     78 H78       -77.7458   30.9733  -71.1437 H         1 UNK         0.1335 
     79 H79       -75.3692   31.5359  -71.6735 H         1 UNK         0.0680 
     80 H80       -74.2992   30.3061  -72.3013 H         1 UNK         0.0680 
     81 H81       -73.8756   32.7529  -73.4846 H         1 UNK         0.1032 
     82 H82       -74.6484   33.1323  -74.9977 H         1 UNK         0.1032 
     83 H83       -73.6409   30.9338  -75.9246 H         1 UNK         0.0461 
     84 H84       -70.3894   32.5950  -76.8999 H         1 UNK         0.3453 
     85 H85       -70.6791   31.1097  -76.0249 H         1 UNK         0.3453 
     86 H86       -72.7834   29.6033  -74.4168 H         1 UNK         0.2984 
     87 H87       -69.8761   29.6886  -72.6405 H         1 UNK         0.0554 
     88 H88       -70.8563   28.9511  -70.4843 H         1 UNK         0.0847 
     89 H89       -72.4122   29.6599  -70.9138 H         1 UNK         0.0847 
     90 H90       -71.0125   30.6895  -70.6525 H         1 UNK         0.0847 
     91 H91       -72.1442   27.8688  -72.5639 H         1 UNK         0.3141 
     92 H92       -70.8335   25.7445  -74.9621 H         1 UNK         0.0743 
     93 H93       -73.1459   26.1647  -72.9816 H         1 UNK         0.0784 
     94 H94       -72.5998   24.6489  -73.6746 H         1 UNK         0.0784 
     95 H95       -71.5649   25.5096  -72.5524 H         1 UNK         0.0784 
     96 H96       -72.4831   25.9911  -76.4635 H         1 UNK         0.3213 
     97 H97       -75.4360   27.9875  -76.5929 H         1 UNK         0.0855 
     98 H98       -73.6556   29.2399  -77.7558 H         1 UNK         0.0814 
     99 H99       -74.5811   28.2891  -78.9056 H         1 UNK         0.0814 
    100 H100      -72.9761   27.7587  -78.4042 H         1 UNK         0.0814 
    101 H101      -75.9959   25.9450  -77.0812 H         1 UNK         0.3105 
    102 H102      -75.9156   24.0374  -78.7046 H         1 UNK         0.0547 
    103 H103      -73.8788   22.9736  -79.6193 H         1 UNK         0.0837 
    104 H104      -73.4156   22.3930  -78.0290 H         1 UNK         0.0837 
    105 H105      -74.8699   21.7718  -78.8077 H         1 UNK         0.0837 
    106 H106      -76.7505   23.3683  -76.7651 H         1 UNK         0.3020 
    107 H107      -75.6300   21.5618  -74.1442 H         1 UNK         0.1245 
    108 H108      -74.9705   23.4968  -72.8581 H         1 UNK         0.0781 
    109 H109      -76.5748   22.9938  -72.4174 H         1 UNK         0.0781 
    110 H110      -75.3761   25.6525  -71.4524 H         1 UNK         0.0836 
    111 H111      -77.0107   25.1525  -71.0973 H         1 UNK         0.0836 
    112 H112      -78.1225   22.9681  -74.7769 H         1 UNK         0.3022 
    113 H113      -79.1385   20.3484  -77.0241 H         1 UNK         0.0747 
    114 H114      -81.2319   20.4972  -75.6734 H         1 UNK         0.0793 
    115 H115      -79.9844   19.5602  -74.8668 H         1 UNK         0.0793 
    116 H116      -80.3243   21.1950  -74.3321 H         1 UNK         0.0793 
    117 H117      -79.5895   22.3063  -77.8780 H         1 UNK         0.3047 
    118 H118      -79.5646   24.6143  -78.0915 H         1 UNK         0.0822 
    119 H119      -81.9368   25.4338  -78.3855 H         1 UNK         0.0807 
    120 H120      -82.4083   24.5427  -76.9406 H         1 UNK         0.0807 
    121 H121      -81.8343   23.6810  -78.3569 H         1 UNK         0.0807 
    122 H122      -80.8583   26.3887  -76.1601 H         1 UNK         0.2946 
    123 H123      -77.9587   27.5811  -74.6893 H         1 UNK         0.1144 
    124 H124      -77.5418   28.7838  -76.8893 H         1 UNK         0.0793 
    125 H125      -78.2060   29.8306  -75.6490 H         1 UNK         0.0793 
    126 H126      -79.2378   29.2224  -76.9462 H         1 UNK         0.0793 
    127 H127      -80.5383   28.8050  -74.9875 H         1 UNK         0.2896 
@<TRIPOS>BOND
     1    1    2 1    
     2    1   67 1    
     3    1   68 1    
     4    1   69 1    
     5    2    3 2    
     6    2    4 am   BACKBONE|DICT|INTERRES
     7    4    5 1    
     8    4   70 1    
     9    5    6 1    
    10    5   65 1    
    11    5   71 1    
    12    6    7 1    
    13    6   72 1    
    14    6   73 1    
    15    7    8 1    
    16    8    9 1    
    17    8   74 1    
    18    8   75 1    
    19    9   10 ar   
    20    9   14 ar   
    21   10   11 ar   
    22   10   76 1    
    23   11   12 ar   
    24   11   48 1    
    25   12   13 ar   
    26   12   77 1    
    27   13   14 ar   
    28   13   15 1    
    29   14   78 1    
    30   15   16 1    
    31   15   79 1    
    32   15   80 1    
    33   16   17 1    
    34   17   18 1    
    35   17   81 1    
    36   17   82 1    
    37   18   19 1    
    38   18   22 1    
    39   18   83 1    
    40   19   20 am   BACKBONE|DICT|INTERRES
    41   19   21 2    
    42   20   84 1    
    43   20   85 1    
    44   22   23 am   BACKBONE|DICT|INTERRES
    45   22   86 1    
    46   23   24 2    
    47   23   25 1    
    48   25   26 1    
    49   25   27 1    
    50   25   87 1    
    51   26   88 1    
    52   26   89 1    
    53   26   90 1    
    54   27   28 am   BACKBONE|DICT|INTERRES
    55   27   91 1    
    56   28   29 2    
    57   28   30 1    
    58   30   31 1    
    59   30   32 1    
    60   30   92 1    
    61   31   93 1    
    62   31   94 1    
    63   31   95 1    
    64   32   33 am   BACKBONE|DICT|INTERRES
    65   32   96 1    
    66   33   34 2    
    67   33   35 1    
    68   35   36 1    
    69   35   37 1    
    70   35   97 1    
    71   36   98 1    
    72   36   99 1    
    73   36  100 1    
    74   37   38 am   BACKBONE|DICT|INTERRES
    75   37  101 1    
    76   38   39 2    
    77   38   40 1    
    78   40   41 1    
    79   40   42 1    
    80   40  102 1    
    81   41  103 1    
    82   41  104 1    
    83   41  105 1    
    84   42   43 am   BACKBONE|DICT|INTERRES
    85   42  106 1    
    86   43   44 2    
    87   43   45 1    
    88   45   46 1    
    89   45   49 1    
    90   45  107 1    
    91   46   47 1    
    92   46  108 1    
    93   46  109 1    
    94   47   48 1    
    95   48  110 1    
    96   48  111 1    
    97   49   50 am   BACKBONE|DICT|INTERRES
    98   49  112 1    
    99   50   51 2    
   100   50   52 1    
   101   52   53 1    
   102   52   54 1    
   103   52  113 1    
   104   53  114 1    
   105   53  115 1    
   106   53  116 1    
   107   54   55 am   BACKBONE|DICT|INTERRES
   108   54  117 1    
   109   55   56 2    
   110   55   57 1    
   111   57   58 1    
   112   57   59 1    
   113   57  118 1    
   114   58  119 1    
   115   58  120 1    
   116   58  121 1    
   117   59   60 am   BACKBONE|DICT|INTERRES
   118   59  122 1    
   119   60   61 2    
   120   60   62 1    
   121   62   63 1    
   122   62   64 1    
   123   62  123 1    
   124   63  124 1    
   125   63  125 1    
   126   63  126 1    
   127   64   65 am   BACKBONE|DICT|INTERRES
   128   64  127 1    
   129   65   66 2    
@<TRIPOS>SUBSTRUCTURE
     1 UNK         1 GROUP             0       ****    0 ROOT    
