@<TRIPOS>MOLECULE
3R135
127   129    1
SMALL
USER_CHARGES


@<TRIPOS>ATOM
      1 CA        -83.0312   23.3817  -71.9448 C.3       0 UNK        -0.1998 
      2 C         -82.9037   24.6591  -72.7608 C.2       0 UNK         0.4909 
      3 O         -83.0567   24.6223  -73.9827 O.2       0 UNK        -0.5240 
      4 N         -82.6243   25.7851  -72.0890 N.am      1 UNK        -0.4739 
      5 CA        -82.4288   27.1203  -72.6677 C.3       1 UNK         0.0864 
      6 C6        -82.1739   28.1604  -71.5452 C.3       11 UNK        -0.0881 
      7 S7        -82.3534   29.8882  -72.1078 S.3       11 UNK        -0.2682 
      8 C8        -80.9879   30.7250  -71.2224 C.3       11 UNK         0.0289 
      9 C9        -79.6064   30.1923  -71.5918 C.ar      11 UNK        -0.0687 
     10 C10       -79.2494   30.0233  -72.9326 C.ar      11 UNK        -0.0823 
     11 C11       -78.0145   29.4727  -73.2776 C.ar      11 UNK        -0.0830 
     12 C12       -77.1210   29.1171  -72.2633 C.ar      11 UNK        -0.1021 
     13 C13       -77.4310   29.3316  -70.9189 C.ar      11 UNK        -0.0753 
     14 C14       -78.6851   29.8602  -70.5904 C.ar      11 UNK        -0.0933 
     15 C15       -76.4384   28.9612  -69.8180 C.3       11 UNK         0.0166 
     16 S16       -74.7157   29.4615  -70.1815 S.3       11 UNK        -0.2615 
     17 C17       -74.0083   27.9053  -70.8295 C.3       11 UNK        -0.0865 
     18 CA        -72.6920   28.1040  -71.6318 C.3       10 UNK         0.0862 
     19 C         -72.0318   26.7277  -71.9542 C.2       10 UNK         0.5551 
     20 N         -71.8421   26.3419  -73.2104 N.am      10 UNK        -0.7319 
     21 O         -71.6680   25.9991  -71.0339 O.2       10 UNK        -0.5018 
     22 N         -72.8678   28.9945  -72.7937 N.am      10 UNK        -0.4509 
     23 C         -71.8635   29.5842  -73.4558 C.2       10 UNK         0.4899 
     24 O         -70.6788   29.5216  -73.1210 O.2       10 UNK        -0.4839 
     25 CA        -72.2470   30.3708  -74.7227 C.3       9 UNK         0.0222 
     26 CB        -71.8123   31.8415  -74.6067 C.3       9 UNK        -0.1966 
     27 N         -71.6861   29.7914  -75.9503 N.am      9 UNK        -0.4218 
     28 C         -71.8384   28.5231  -76.3573 C.2       9 UNK         0.5020 
     29 O         -72.4434   27.6622  -75.7193 O.2       9 UNK        -0.5274 
     30 CA        -71.1989   28.1402  -77.6951 C.3       8 UNK         0.0270 
     31 CB        -69.6912   27.8740  -77.5214 C.3       8 UNK        -0.1976 
     32 N         -71.8613   26.9432  -78.2225 N.am      8 UNK        -0.4313 
     33 C         -71.8757   26.5910  -79.5164 C.2       8 UNK         0.5041 
     34 O         -71.3434   27.2664  -80.3991 O.2       8 UNK        -0.5577 
     35 CA        -72.5761   25.2841  -79.9304 C.3       7 UNK         0.0284 
     36 CB        -71.5474   24.1548  -80.1155 C.3       7 UNK        -0.1958 
     37 N         -73.6109   24.8454  -78.9924 N.am      7 UNK        -0.4454 
     38 C         -74.8084   24.3492  -79.3256 C.2       7 UNK         0.5089 
     39 O         -75.1948   24.2199  -80.4877 O.2       7 UNK        -0.5125 
     40 CA        -75.7469   23.9224  -78.1759 C.3       6 UNK         0.0408 
     41 CB        -75.3560   22.5380  -77.6246 C.3       6 UNK        -0.1791 
     42 N         -75.8880   24.9100  -77.0959 N.am      6 UNK        -0.4762 
     43 C         -74.9439   25.3777  -76.2636 C.2       6 UNK         0.5007 
     44 O         -73.7776   24.9808  -76.2513 O.2       6 UNK        -0.5032 
     45 CA        -75.3795   26.5103  -75.3250 C.3       5 UNK         0.0783 
     46 C46       -75.7571   27.7651  -76.1579 C.3       11 UNK        -0.0857 
     47 S47       -75.9297   29.2628  -75.1463 S.3       11 UNK        -0.2512 
     48 C48       -77.7053   29.2037  -74.7442 C.3       11 UNK         0.0225 
     49 N         -76.4579   26.0202  -74.4651 N.am      5 UNK        -0.4615 
     50 C         -76.2521   25.3093  -73.3456 C.2       4 UNK         0.5053 
     51 O         -75.1441   25.1376  -72.8402 O.2       4 UNK        -0.5105 
     52 CA        -77.4736   24.6561  -72.6759 C.3       4 UNK         0.0263 
     53 CB        -77.9472   25.4896  -71.4740 C.3       4 UNK        -0.1981 
     54 N         -78.5785   24.4484  -73.6157 N.am      4 UNK        -0.4224 
     55 C         -78.5935   23.4742  -74.5412 C.2       3 UNK         0.4895 
     56 O         -77.7364   22.5930  -74.6084 O.2       3 UNK        -0.5091 
     57 CA        -79.7275   23.4733  -75.5850 C.3       3 UNK         0.0250 
     58 CB        -80.7446   22.3619  -75.2825 C.3       3 UNK        -0.1996 
     59 N         -80.4275   24.7540  -75.7105 N.am      3 UNK        -0.4254 
     60 C         -79.8773   25.8749  -76.2007 C.2       2 UNK         0.5004 
     61 O         -78.7183   25.9396  -76.6172 O.2       2 UNK        -0.5226 
     62 CA        -80.7412   27.1517  -76.1578 C.3       2 UNK         0.0269 
     63 CB        -81.5514   27.2872  -77.4560 C.3       2 UNK        -0.1926 
     64 N         -81.6517   27.2358  -75.0060 N.am      2 UNK        -0.4687 
     65 C         -81.2980   27.0960  -73.7186 C.2       1 UNK         0.5165 
     66 O         -80.1439   26.8758  -73.3544 O.2       1 UNK        -0.5079 
     67 H67       -83.9061   22.8163  -72.2649 H         1 UNK         0.0900 
     68 H68       -82.1504   22.7557  -72.0826 H         1 UNK         0.0900 
     69 H69       -83.1372   23.5900  -70.8803 H         1 UNK         0.0900 
     70 H70       -82.4898   25.7284  -71.0897 H         1 UNK         0.2959 
     71 H71       -83.3622   27.3844  -73.1693 H         1 UNK         0.1079 
     72 H72       -82.8954   28.0195  -70.7387 H         1 UNK         0.0837 
     73 H73       -81.1925   28.0048  -71.0928 H         1 UNK         0.0837 
     74 H74       -81.0232   31.7910  -71.4502 H         1 UNK         0.0685 
     75 H75       -81.1631   30.6321  -70.1494 H         1 UNK         0.0685 
     76 H76       -79.9567   30.2796  -73.7093 H         1 UNK         0.1434 
     77 H77       -76.1774   28.6661  -72.5219 H         1 UNK         0.1329 
     78 H78       -78.9495   30.0027  -69.5516 H         1 UNK         0.1335 
     79 H79       -76.4865   27.8868  -69.6368 H         1 UNK         0.0680 
     80 H80       -76.7292   29.4411  -68.8824 H         1 UNK         0.0680 
     81 H81       -73.8310   27.2557  -69.9699 H         1 UNK         0.1032 
     82 H82       -74.7457   27.3848  -71.4400 H         1 UNK         0.1032 
     83 H83       -71.9904   28.6061  -70.9628 H         1 UNK         0.0461 
     84 H84       -72.1247   26.9239  -73.9935 H         1 UNK         0.3453 
     85 H85       -71.4205   25.4453  -73.3872 H         1 UNK         0.3453 
     86 H86       -73.8083   29.0905  -73.1466 H         1 UNK         0.2984 
     87 H87       -73.3313   30.3585  -74.8264 H         1 UNK         0.0554 
     88 H88       -72.2240   32.2990  -73.7060 H         1 UNK         0.0847 
     89 H89       -72.1631   32.4294  -75.4550 H         1 UNK         0.0847 
     90 H90       -70.7271   31.9397  -74.5539 H         1 UNK         0.0847 
     91 H91       -71.1411   30.4155  -76.5273 H         1 UNK         0.3141 
     92 H92       -71.3480   28.9696  -78.3900 H         1 UNK         0.0743 
     93 H93       -69.5080   27.0431  -76.8388 H         1 UNK         0.0784 
     94 H94       -69.2158   27.6356  -78.4731 H         1 UNK         0.0784 
     95 H95       -69.1793   28.7480  -77.1169 H         1 UNK         0.0784 
     96 H96       -72.3382   26.3960  -77.5149 H         1 UNK         0.3213 
     97 H97       -73.0353   25.4858  -80.9008 H         1 UNK         0.0855 
     98 H98       -71.0643   23.8929  -79.1734 H         1 UNK         0.0814 
     99 H99       -70.7636   24.4490  -80.8150 H         1 UNK         0.0814 
    100 H100      -72.0150   23.2546  -80.5146 H         1 UNK         0.0814 
    101 H101      -73.4055   24.8934  -77.9964 H         1 UNK         0.3105 
    102 H102      -76.7447   23.8272  -78.6074 H         1 UNK         0.0547 
    103 H103      -75.3488   21.7915  -78.4198 H         1 UNK         0.0837 
    104 H104      -74.3631   22.5393  -77.1744 H         1 UNK         0.0837 
    105 H105      -76.0647   22.1995  -76.8688 H         1 UNK         0.0837 
    106 H106      -76.8169   25.3162  -77.0186 H         1 UNK         0.3020 
    107 H107      -74.5241   26.7610  -74.6953 H         1 UNK         0.1245 
    108 H108      -76.6654   27.6092  -76.7415 H         1 UNK         0.0781 
    109 H109      -74.9742   27.9823  -76.8876 H         1 UNK         0.0781 
    110 H110      -78.1022   28.2172  -74.9748 H         1 UNK         0.0836 
    111 H111      -78.2295   29.9135  -75.3857 H         1 UNK         0.0836 
    112 H112      -77.3957   26.0811  -74.8382 H         1 UNK         0.3022 
    113 H113      -77.1582   23.6811  -72.2979 H         1 UNK         0.0747 
    114 H114      -78.8302   25.0532  -71.0073 H         1 UNK         0.0793 
    115 H115      -77.1689   25.5455  -70.7121 H         1 UNK         0.0793 
    116 H116      -78.1894   26.5129  -71.7588 H         1 UNK         0.0793 
    117 H117      -79.2994   25.1658  -73.6218 H         1 UNK         0.3047 
    118 H118      -79.2675   23.2546  -76.5513 H         1 UNK         0.0822 
    119 H119      -81.5220   22.3150  -76.0453 H         1 UNK         0.0807 
    120 H120      -81.2292   22.5106  -74.3184 H         1 UNK         0.0807 
    121 H121      -80.2591   21.3853  -75.2549 H         1 UNK         0.0807 
    122 H122      -81.3721   24.7976  -75.3420 H         1 UNK         0.2946 
    123 H123      -80.0636   28.0033  -76.0985 H         1 UNK         0.1144 
    124 H124      -82.0845   28.2374  -77.4951 H         1 UNK         0.0793 
    125 H125      -82.2837   26.4855  -77.5606 H         1 UNK         0.0793 
    126 H126      -80.8987   27.2489  -78.3296 H         1 UNK         0.0793 
    127 H127      -82.6299   27.3661  -75.2216 H         1 UNK         0.2896 
@<TRIPOS>BOND
     1    1    2 1    
     2    1   67 1    
     3    1   68 1    
     4    1   69 1    
     5    2    3 2    
     6    2    4 am   BACKBONE|DICT|INTERRES
     7    4    5 1    
     8    4   70 1    
     9    5    6 1    
    10    5   65 1    
    11    5   71 1    
    12    6    7 1    
    13    6   72 1    
    14    6   73 1    
    15    7    8 1    
    16    8    9 1    
    17    8   74 1    
    18    8   75 1    
    19    9   10 ar   
    20    9   14 ar   
    21   10   11 ar   
    22   10   76 1    
    23   11   12 ar   
    24   11   48 1    
    25   12   13 ar   
    26   12   77 1    
    27   13   14 ar   
    28   13   15 1    
    29   14   78 1    
    30   15   16 1    
    31   15   79 1    
    32   15   80 1    
    33   16   17 1    
    34   17   18 1    
    35   17   81 1    
    36   17   82 1    
    37   18   19 1    
    38   18   22 1    
    39   18   83 1    
    40   19   20 am   BACKBONE|DICT|INTERRES
    41   19   21 2    
    42   20   84 1    
    43   20   85 1    
    44   22   23 am   BACKBONE|DICT|INTERRES
    45   22   86 1    
    46   23   24 2    
    47   23   25 1    
    48   25   26 1    
    49   25   27 1    
    50   25   87 1    
    51   26   88 1    
    52   26   89 1    
    53   26   90 1    
    54   27   28 am   BACKBONE|DICT|INTERRES
    55   27   91 1    
    56   28   29 2    
    57   28   30 1    
    58   30   31 1    
    59   30   32 1    
    60   30   92 1    
    61   31   93 1    
    62   31   94 1    
    63   31   95 1    
    64   32   33 am   BACKBONE|DICT|INTERRES
    65   32   96 1    
    66   33   34 2    
    67   33   35 1    
    68   35   36 1    
    69   35   37 1    
    70   35   97 1    
    71   36   98 1    
    72   36   99 1    
    73   36  100 1    
    74   37   38 am   BACKBONE|DICT|INTERRES
    75   37  101 1    
    76   38   39 2    
    77   38   40 1    
    78   40   41 1    
    79   40   42 1    
    80   40  102 1    
    81   41  103 1    
    82   41  104 1    
    83   41  105 1    
    84   42   43 am   BACKBONE|DICT|INTERRES
    85   42  106 1    
    86   43   44 2    
    87   43   45 1    
    88   45   46 1    
    89   45   49 1    
    90   45  107 1    
    91   46   47 1    
    92   46  108 1    
    93   46  109 1    
    94   47   48 1    
    95   48  110 1    
    96   48  111 1    
    97   49   50 am   BACKBONE|DICT|INTERRES
    98   49  112 1    
    99   50   51 2    
   100   50   52 1    
   101   52   53 1    
   102   52   54 1    
   103   52  113 1    
   104   53  114 1    
   105   53  115 1    
   106   53  116 1    
   107   54   55 am   BACKBONE|DICT|INTERRES
   108   54  117 1    
   109   55   56 2    
   110   55   57 1    
   111   57   58 1    
   112   57   59 1    
   113   57  118 1    
   114   58  119 1    
   115   58  120 1    
   116   58  121 1    
   117   59   60 am   BACKBONE|DICT|INTERRES
   118   59  122 1    
   119   60   61 2    
   120   60   62 1    
   121   62   63 1    
   122   62   64 1    
   123   62  123 1    
   124   63  124 1    
   125   63  125 1    
   126   63  126 1    
   127   64   65 am   BACKBONE|DICT|INTERRES
   128   64  127 1    
   129   65   66 2    
@<TRIPOS>SUBSTRUCTURE
     1 UNK         1 GROUP             0       ****    0 ROOT    
