@<TRIPOS>MOLECULE
3R135
127   129    1
SMALL
USER_CHARGES


@<TRIPOS>ATOM
      1 CA        -83.0598   25.6262  -72.0798 C.3       0 UNK        -0.1998 
      2 C         -81.8150   25.3572  -72.9114 C.2       0 UNK         0.4909 
      3 O         -81.9138   24.7831  -73.9975 O.2       0 UNK        -0.5240 
      4 N         -80.6422   25.7707  -72.4140 N.am      1 UNK        -0.4739 
      5 CA        -79.3456   25.5303  -73.0525 C.3       1 UNK         0.0864 
      6 C6        -78.2488   26.5116  -72.5778 C.3       11 UNK        -0.0881 
      7 S7        -78.0292   26.6391  -70.7682 S.3       11 UNK        -0.2682 
      8 C8        -78.9276   28.1777  -70.3694 C.3       11 UNK         0.0289 
      9 C9        -78.3050   29.4074  -71.0182 C.ar      11 UNK        -0.0687 
     10 C10       -78.8701   29.9560  -72.1732 C.ar      11 UNK        -0.0823 
     11 C11       -78.2940   31.0693  -72.7920 C.ar      11 UNK        -0.0830 
     12 C12       -77.1663   31.6645  -72.2171 C.ar      11 UNK        -0.1021 
     13 C13       -76.6132   31.1480  -71.0406 C.ar      11 UNK        -0.0753 
     14 C14       -77.1786   30.0116  -70.4536 C.ar      11 UNK        -0.0933 
     15 C15       -75.4338   31.8390  -70.3723 C.3       11 UNK         0.0166 
     16 S16       -73.8580   31.0017  -70.7205 S.3       11 UNK        -0.2615 
     17 C17       -73.4973   31.5469  -72.4281 C.3       11 UNK        -0.0865 
     18 CA        -73.6415   30.4105  -73.4844 C.3       10 UNK         0.0862 
     19 C         -73.3750   30.9210  -74.9321 C.2       10 UNK         0.5551 
     20 N         -74.1420   31.9024  -75.3903 N.am      10 UNK        -0.7319 
     21 O         -72.5003   30.4468  -75.6534 O.2       10 UNK        -0.5018 
     22 N         -72.8919   29.1929  -73.1306 N.am      10 UNK        -0.4509 
     23 C         -71.5735   29.0818  -72.9112 C.2       10 UNK         0.4899 
     24 O         -70.7749   30.0159  -72.9960 O.2       10 UNK        -0.4839 
     25 CA        -71.0470   27.6979  -72.4774 C.3       9 UNK         0.0222 
     26 CB        -70.6790   27.7140  -70.9839 C.3       9 UNK        -0.1966 
     27 N         -71.9952   26.6050  -72.7202 N.am      9 UNK        -0.4218 
     28 C         -72.2524   26.0789  -73.9246 C.2       9 UNK         0.5020 
     29 O         -71.6445   26.4068  -74.9461 O.2       9 UNK        -0.5274 
     30 CA        -73.3681   25.0180  -73.9939 C.3       8 UNK         0.0270 
     31 CB        -74.5202   25.2954  -73.0060 C.3       8 UNK        -0.1976 
     32 N         -73.9164   24.9949  -75.3469 N.am      8 UNK        -0.4313 
     33 C         -73.6595   24.0679  -76.2792 C.2       8 UNK         0.5041 
     34 O         -73.0109   23.0419  -76.0677 O.2       8 UNK        -0.5577 
     35 CA        -74.2195   24.3174  -77.6929 C.3       7 UNK         0.0284 
     36 CB        -75.4661   23.4562  -77.9481 C.3       7 UNK        -0.1958 
     37 N         -74.5511   25.7245  -77.9247 N.am      7 UNK        -0.4454 
     38 C         -73.6487   26.6812  -78.1827 C.2       7 UNK         0.5089 
     39 O         -72.4575   26.4555  -78.3963 O.2       7 UNK        -0.5125 
     40 CA        -74.1534   28.1360  -78.2107 C.3       6 UNK         0.0408 
     41 CB        -74.2004   28.6602  -79.6551 C.3       6 UNK        -0.1791 
     42 N         -75.4682   28.3341  -77.5902 N.am      6 UNK        -0.4762 
     43 C         -75.7370   28.2215  -76.2805 C.2       6 UNK         0.5007 
     44 O         -74.9200   27.8591  -75.4353 O.2       6 UNK        -0.5032 
     45 CA        -77.1919   28.5026  -75.8671 C.3       5 UNK         0.0783 
     46 C46       -77.4792   30.0250  -75.8837 C.3       11 UNK        -0.0857 
     47 S47       -79.1835   30.4196  -75.3674 S.3       11 UNK        -0.2512 
     48 C48       -78.9168   31.6575  -74.0531 C.3       11 UNK         0.0225 
     49 N         -78.1294   27.7363  -76.6999 N.am      5 UNK        -0.4615 
     50 C         -78.2315   26.4023  -76.6961 C.2       4 UNK         0.5053 
     51 O         -77.5650   25.6636  -75.9627 O.2       4 UNK        -0.5105 
     52 CA        -79.2302   25.7859  -77.6825 C.3       4 UNK         0.0263 
     53 CB        -78.6437   25.7381  -79.1049 C.3       4 UNK        -0.1981 
     54 N         -79.5353   24.4385  -77.2182 N.am      4 UNK        -0.4224 
     55 C         -80.6206   23.7077  -77.4931 C.2       3 UNK         0.4895 
     56 O         -81.4946   24.0624  -78.2851 O.2       3 UNK        -0.5091 
     57 CA        -80.7964   22.3764  -76.7296 C.3       3 UNK         0.0250 
     58 CB        -80.7603   21.1606  -77.6785 C.3       3 UNK        -0.1996 
     59 N         -79.8861   22.2229  -75.5809 N.am      3 UNK        -0.4254 
     60 C         -78.5696   21.9554  -75.5770 C.2       2 UNK         0.5004 
     61 O         -77.9243   21.6401  -76.5754 O.2       2 UNK        -0.5226 
     62 CA        -77.8471   22.2235  -74.2458 C.3       2 UNK         0.0269 
     63 CB        -76.3324   21.9598  -74.3161 C.3       2 UNK        -0.1926 
     64 N         -78.0780   23.6294  -73.9065 N.am      2 UNK        -0.4687 
     65 C         -78.9241   24.0496  -72.9601 C.2       1 UNK         0.5165 
     66 O         -79.4057   23.3117  -72.0964 O.2       1 UNK        -0.5079 
     67 H67       -83.5481   24.6868  -71.8225 H         1 UNK         0.0900 
     68 H68       -83.7651   26.2335  -72.6464 H         1 UNK         0.0900 
     69 H69       -82.8262   26.1522  -71.1543 H         1 UNK         0.0900 
     70 H70       -80.6015   26.1803  -71.4925 H         1 UNK         0.2959 
     71 H71       -79.4965   25.7287  -74.1152 H         1 UNK         0.1079 
     72 H72       -77.2872   26.2526  -73.0211 H         1 UNK         0.0837 
     73 H73       -78.4788   27.4936  -72.9807 H         1 UNK         0.0837 
     74 H74       -79.9721   28.0768  -70.6669 H         1 UNK         0.0685 
     75 H75       -78.9347   28.3064  -69.2860 H         1 UNK         0.0685 
     76 H76       -79.7548   29.5065  -72.6036 H         1 UNK         0.1434 
     77 H77       -76.7326   32.5453  -72.6701 H         1 UNK         0.1329 
     78 H78       -76.7470   29.6026  -69.5501 H         1 UNK         0.1335 
     79 H79       -75.3728   32.8864  -70.6719 H         1 UNK         0.0680 
     80 H80       -75.5893   31.8465  -69.2924 H         1 UNK         0.0680 
     81 H81       -72.4846   31.9526  -72.4435 H         1 UNK         0.1032 
     82 H82       -74.1472   32.3867  -72.6752 H         1 UNK         0.1032 
     83 H83       -74.6852   30.0928  -73.4809 H         1 UNK         0.0461 
     84 H84       -74.8639   32.3186  -74.8259 H         1 UNK         0.3453 
     85 H85       -73.9793   32.2457  -76.3237 H         1 UNK         0.3453 
     86 H86       -73.4462   28.3517  -73.0927 H         1 UNK         0.2984 
     87 H87       -70.1369   27.5007  -73.0481 H         1 UNK         0.0554 
     88 H88       -70.2489   26.7633  -70.6683 H         1 UNK         0.0847 
     89 H89       -71.5475   27.9180  -70.3560 H         1 UNK         0.0847 
     90 H90       -69.9388   28.4872  -70.7729 H         1 UNK         0.0847 
     91 H91       -72.5226   26.2756  -71.9243 H         1 UNK         0.3141 
     92 H92       -72.9233   24.0521  -73.7462 H         1 UNK         0.0743 
     93 H93       -74.9034   26.3115  -73.1077 H         1 UNK         0.0784 
     94 H94       -75.3524   24.6116  -73.1713 H         1 UNK         0.0784 
     95 H95       -74.2059   25.1592  -71.9710 H         1 UNK         0.0784 
     96 H96       -74.3799   25.8508  -75.6313 H         1 UNK         0.3213 
     97 H97       -73.4485   24.0157  -78.4054 H         1 UNK         0.0855 
     98 H98       -76.2924   23.7367  -77.2958 H         1 UNK         0.0814 
     99 H99       -75.2576   22.4008  -77.7669 H         1 UNK         0.0814 
    100 H100      -75.8062   23.5437  -78.9797 H         1 UNK         0.0814 
    101 H101      -75.5075   26.0030  -77.7630 H         1 UNK         0.3105 
    102 H102      -73.4299   28.7353  -77.6541 H         1 UNK         0.0547 
    103 H103      -73.2269   28.5626  -80.1379 H         1 UNK         0.0837 
    104 H104      -74.9206   28.1101  -80.2619 H         1 UNK         0.0837 
    105 H105      -74.4683   29.7164  -79.6865 H         1 UNK         0.0837 
    106 H106      -76.2176   28.6093  -78.2088 H         1 UNK         0.3020 
    107 H107      -77.2964   28.1553  -74.8387 H         1 UNK         0.1245 
    108 H108      -77.3281   30.4420  -76.8811 H         1 UNK         0.0781 
    109 H109      -76.7780   30.5455  -75.2290 H         1 UNK         0.0781 
    110 H110      -79.8791   32.0989  -73.7903 H         1 UNK         0.0836 
    111 H111      -78.3069   32.4702  -74.4509 H         1 UNK         0.0836 
    112 H112      -78.7311   28.2770  -77.3048 H         1 UNK         0.3022 
    113 H113      -80.1446   26.3829  -77.6742 H         1 UNK         0.0747 
    114 H114      -79.3532   25.3066  -79.8111 H         1 UNK         0.0793 
    115 H115      -78.3993   26.7376  -79.4664 H         1 UNK         0.0793 
    116 H116      -77.7318   25.1421  -79.1456 H         1 UNK         0.0793 
    117 H117      -78.8579   24.0711  -76.5641 H         1 UNK         0.3047 
    118 H118      -81.7967   22.4175  -76.2955 H         1 UNK         0.0822 
    119 H119      -80.8835   20.2252  -77.1328 H         1 UNK         0.0807 
    120 H120      -79.8269   21.1050  -78.2390 H         1 UNK         0.0807 
    121 H121      -81.5673   21.2182  -78.4098 H         1 UNK         0.0807 
    122 H122      -80.2969   22.4942  -74.6968 H         1 UNK         0.2946 
    123 H123      -78.2757   21.5536  -73.4966 H         1 UNK         0.1144 
    124 H124      -75.8554   22.1346  -73.3519 H         1 UNK         0.0793 
    125 H125      -75.8462   22.6011  -75.0497 H         1 UNK         0.0793 
    126 H126      -76.1269   20.9263  -74.5974 H         1 UNK         0.0793 
    127 H127      -77.7221   24.3104  -74.5731 H         1 UNK         0.2896 
@<TRIPOS>BOND
     1    1    2 1    
     2    1   67 1    
     3    1   68 1    
     4    1   69 1    
     5    2    3 2    
     6    2    4 am   BACKBONE|DICT|INTERRES
     7    4    5 1    
     8    4   70 1    
     9    5    6 1    
    10    5   65 1    
    11    5   71 1    
    12    6    7 1    
    13    6   72 1    
    14    6   73 1    
    15    7    8 1    
    16    8    9 1    
    17    8   74 1    
    18    8   75 1    
    19    9   10 ar   
    20    9   14 ar   
    21   10   11 ar   
    22   10   76 1    
    23   11   12 ar   
    24   11   48 1    
    25   12   13 ar   
    26   12   77 1    
    27   13   14 ar   
    28   13   15 1    
    29   14   78 1    
    30   15   16 1    
    31   15   79 1    
    32   15   80 1    
    33   16   17 1    
    34   17   18 1    
    35   17   81 1    
    36   17   82 1    
    37   18   19 1    
    38   18   22 1    
    39   18   83 1    
    40   19   20 am   BACKBONE|DICT|INTERRES
    41   19   21 2    
    42   20   84 1    
    43   20   85 1    
    44   22   23 am   BACKBONE|DICT|INTERRES
    45   22   86 1    
    46   23   24 2    
    47   23   25 1    
    48   25   26 1    
    49   25   27 1    
    50   25   87 1    
    51   26   88 1    
    52   26   89 1    
    53   26   90 1    
    54   27   28 am   BACKBONE|DICT|INTERRES
    55   27   91 1    
    56   28   29 2    
    57   28   30 1    
    58   30   31 1    
    59   30   32 1    
    60   30   92 1    
    61   31   93 1    
    62   31   94 1    
    63   31   95 1    
    64   32   33 am   BACKBONE|DICT|INTERRES
    65   32   96 1    
    66   33   34 2    
    67   33   35 1    
    68   35   36 1    
    69   35   37 1    
    70   35   97 1    
    71   36   98 1    
    72   36   99 1    
    73   36  100 1    
    74   37   38 am   BACKBONE|DICT|INTERRES
    75   37  101 1    
    76   38   39 2    
    77   38   40 1    
    78   40   41 1    
    79   40   42 1    
    80   40  102 1    
    81   41  103 1    
    82   41  104 1    
    83   41  105 1    
    84   42   43 am   BACKBONE|DICT|INTERRES
    85   42  106 1    
    86   43   44 2    
    87   43   45 1    
    88   45   46 1    
    89   45   49 1    
    90   45  107 1    
    91   46   47 1    
    92   46  108 1    
    93   46  109 1    
    94   47   48 1    
    95   48  110 1    
    96   48  111 1    
    97   49   50 am   BACKBONE|DICT|INTERRES
    98   49  112 1    
    99   50   51 2    
   100   50   52 1    
   101   52   53 1    
   102   52   54 1    
   103   52  113 1    
   104   53  114 1    
   105   53  115 1    
   106   53  116 1    
   107   54   55 am   BACKBONE|DICT|INTERRES
   108   54  117 1    
   109   55   56 2    
   110   55   57 1    
   111   57   58 1    
   112   57   59 1    
   113   57  118 1    
   114   58  119 1    
   115   58  120 1    
   116   58  121 1    
   117   59   60 am   BACKBONE|DICT|INTERRES
   118   59  122 1    
   119   60   61 2    
   120   60   62 1    
   121   62   63 1    
   122   62   64 1    
   123   62  123 1    
   124   63  124 1    
   125   63  125 1    
   126   63  126 1    
   127   64   65 am   BACKBONE|DICT|INTERRES
   128   64  127 1    
   129   65   66 2    
@<TRIPOS>SUBSTRUCTURE
     1 UNK         1 GROUP             0       ****    0 ROOT    
