@<TRIPOS>MOLECULE
3R135
127   129    1
SMALL
USER_CHARGES


@<TRIPOS>ATOM
      1 CA        -83.6296   27.4804  -70.8846 C.3       0 UNK        -0.1998 
      2 C         -83.1624   27.9867  -72.2409 C.2       0 UNK         0.4909 
      3 O         -83.9813   28.1698  -73.1420 O.2       0 UNK        -0.5240 
      4 N         -81.8512   28.2158  -72.3897 N.am      1 UNK        -0.4739 
      5 CA        -81.2161   28.6855  -73.6287 C.3       1 UNK         0.0864 
      6 C6        -79.7960   29.2451  -73.3654 C.3       11 UNK        -0.0881 
      7 S7        -79.8180   30.7991  -72.3966 S.3       11 UNK        -0.2682 
      8 C8        -79.6421   30.2627  -70.6579 C.3       11 UNK         0.0289 
      9 C9        -78.3462   29.5040  -70.4209 C.ar      11 UNK        -0.0687 
     10 C10       -78.3610   28.1110  -70.3129 C.ar      11 UNK        -0.0823 
     11 C11       -77.1653   27.3935  -70.2306 C.ar      11 UNK        -0.0830 
     12 C12       -75.9506   28.0842  -70.1923 C.ar      11 UNK        -0.1021 
     13 C13       -75.9251   29.4800  -70.2718 C.ar      11 UNK        -0.0753 
     14 C14       -77.1275   30.1871  -70.3700 C.ar      11 UNK        -0.0933 
     15 C15       -74.5916   30.2112  -70.3611 C.3       11 UNK         0.0166 
     16 S16       -74.2818   30.9053  -72.0252 S.3       11 UNK        -0.2615 
     17 C17       -74.9054   29.5822  -73.1269 C.3       11 UNK        -0.0865 
     18 CA        -74.8512   29.8397  -74.6596 C.3       10 UNK         0.0862 
     19 C         -75.3938   31.2087  -75.1747 C.2       10 UNK         0.5551 
     20 N         -76.3683   31.8019  -74.4976 N.am      10 UNK        -0.7319 
     21 O         -74.9989   31.7030  -76.2292 O.2       10 UNK        -0.5018 
     22 N         -73.5977   29.3743  -75.2697 N.am      10 UNK        -0.4509 
     23 C         -72.4210   30.0075  -75.3355 C.2       10 UNK         0.4899 
     24 O         -72.1835   31.0979  -74.8139 O.2       10 UNK        -0.4839 
     25 CA        -71.3330   29.2961  -76.1662 C.3       9 UNK         0.0222 
     26 CB        -69.9183   29.8767  -75.9490 C.3       9 UNK        -0.1966 
     27 N         -71.3479   27.8333  -76.0166 N.am      9 UNK        -0.4218 
     28 C         -71.0414   27.1207  -74.9196 C.2       9 UNK         0.5020 
     29 O         -70.6770   27.6266  -73.8570 O.2       9 UNK        -0.5274 
     30 CA        -71.1500   25.5846  -75.0234 C.3       8 UNK         0.0270 
     31 CB        -71.5402   24.9411  -73.6789 C.3       8 UNK        -0.1976 
     32 N         -72.1286   25.1821  -76.0349 N.am      8 UNK        -0.4313 
     33 C         -71.8517   24.6617  -77.2380 C.2       8 UNK         0.5041 
     34 O         -70.7087   24.4186  -77.6266 O.2       8 UNK        -0.5577 
     35 CA        -73.0363   24.3766  -78.1865 C.3       7 UNK         0.0284 
     36 CB        -73.3592   22.8736  -78.1988 C.3       7 UNK        -0.1958 
     37 N         -74.2614   25.1212  -77.8771 N.am      7 UNK        -0.4454 
     38 C         -74.3824   26.4559  -77.8814 C.2       7 UNK         0.5089 
     39 O         -73.4759   27.2284  -78.1937 O.2       7 UNK        -0.5125 
     40 CA        -75.7076   27.0244  -77.3454 C.3       6 UNK         0.0408 
     41 CB        -76.7800   27.0402  -78.4438 C.3       6 UNK        -0.1791 
     42 N         -76.2080   26.3098  -76.1620 N.am      6 UNK        -0.4762 
     43 C         -75.5256   26.1149  -75.0212 C.2       6 UNK         0.5007 
     44 O         -74.3876   26.5389  -74.8337 O.2       6 UNK        -0.5032 
     45 CA        -76.2024   25.2755  -73.9253 C.3       5 UNK         0.0783 
     46 C46       -77.2124   26.1341  -73.1321 C.3       11 UNK        -0.0857 
     47 S47       -78.0224   25.2246  -71.7688 S.3       11 UNK        -0.2512 
     48 C48       -77.1780   25.8706  -70.2801 C.3       11 UNK         0.0225 
     49 N         -76.8036   24.0808  -74.5159 N.am      5 UNK        -0.4615 
     50 C         -76.1137   22.9935  -74.8849 C.2       4 UNK         0.5053 
     51 O         -74.9099   22.8449  -74.6774 O.2       4 UNK        -0.5105 
     52 CA        -76.8900   21.8936  -75.6312 C.3       4 UNK         0.0263 
     53 CB        -77.4371   20.8561  -74.6381 C.3       4 UNK        -0.1981 
     54 N         -77.9929   22.4182  -76.4412 N.am      4 UNK        -0.4224 
     55 C         -77.8411   23.2041  -77.5173 C.2       3 UNK         0.4895 
     56 O         -76.7471   23.5164  -77.9882 O.2       3 UNK        -0.5091 
     57 CA        -79.1277   23.7846  -78.1348 C.3       3 UNK         0.0250 
     58 CB        -79.7063   22.8180  -79.1799 C.3       3 UNK        -0.1996 
     59 N         -80.1614   24.1177  -77.1443 N.am      3 UNK        -0.4254 
     60 C         -80.0033   24.9929  -76.1403 C.2       2 UNK         0.5004 
     61 O         -78.9572   25.6122  -75.9420 O.2       2 UNK        -0.5226 
     62 CA        -81.1802   25.1272  -75.1576 C.3       2 UNK         0.0269 
     63 CB        -81.2466   23.8914  -74.2428 C.3       2 UNK        -0.1926 
     64 N         -81.1080   26.3194  -74.3063 N.am      2 UNK        -0.4687 
     65 C         -81.2028   27.5917  -74.7224 C.2       1 UNK         0.5165 
     66 O         -81.3274   27.9175  -75.9041 O.2       1 UNK        -0.5079 
     67 H67       -82.8039   27.3725  -70.1815 H         1 UNK         0.0900 
     68 H68       -84.3521   28.1734  -70.4545 H         1 UNK         0.0900 
     69 H69       -84.1116   26.5091  -70.9929 H         1 UNK         0.0900 
     70 H70       -81.2306   28.0564  -71.6115 H         1 UNK         0.2959 
     71 H71       -81.8271   29.5008  -74.0239 H         1 UNK         0.1079 
     72 H72       -79.3040   29.4784  -74.3120 H         1 UNK         0.0837 
     73 H73       -79.1630   28.5003  -72.8849 H         1 UNK         0.0837 
     74 H74       -79.6630   31.1452  -70.0169 H         1 UNK         0.0685 
     75 H75       -80.5052   29.6623  -70.3690 H         1 UNK         0.0685 
     76 H76       -79.2978   27.5742  -70.3620 H         1 UNK         0.1434 
     77 H77       -75.0205   27.5335  -70.1547 H         1 UNK         0.1329 
     78 H78       -77.1100   31.2638  -70.4716 H         1 UNK         0.1335 
     79 H79       -74.5684   31.0185  -69.6279 H         1 UNK         0.0680 
     80 H80       -73.7694   29.5411  -70.1053 H         1 UNK         0.0680 
     81 H81       -74.3838   28.6546  -72.8845 H         1 UNK         0.1032 
     82 H82       -75.9488   29.3988  -72.8706 H         1 UNK         0.1032 
     83 H83       -75.5793   29.1455  -75.0761 H         1 UNK         0.0461 
     84 H84       -76.7015   31.4212  -73.6264 H         1 UNK         0.3453 
     85 H85       -76.7440   32.6713  -74.8416 H         1 UNK         0.3453 
     86 H86       -73.6525   28.4551  -75.6869 H         1 UNK         0.2984 
     87 H87       -71.5959   29.4819  -77.2087 H         1 UNK         0.0554 
     88 H88       -69.8846   30.9319  -76.2226 H         1 UNK         0.0847 
     89 H89       -69.1780   29.3613  -76.5607 H         1 UNK         0.0847 
     90 H90       -69.6039   29.8048  -74.9075 H         1 UNK         0.0847 
     91 H91       -71.6814   27.3243  -76.8270 H         1 UNK         0.3141 
     92 H92       -70.1578   25.2183  -75.2939 H         1 UNK         0.0743 
     93 H93       -72.4891   25.3289  -73.3067 H         1 UNK         0.0784 
     94 H94       -71.6350   23.8588  -73.7703 H         1 UNK         0.0784 
     95 H95       -70.7857   25.1354  -72.9156 H         1 UNK         0.0784 
     96 H96       -73.0932   25.4001  -75.8040 H         1 UNK         0.3213 
     97 H97       -72.7214   24.6687  -79.1904 H         1 UNK         0.0855 
     98 H98       -73.7033   22.5290  -77.2229 H         1 UNK         0.0814 
     99 H99       -72.4791   22.2852  -78.4619 H         1 UNK         0.0814 
    100 H100      -74.1348   22.6397  -78.9285 H         1 UNK         0.0814 
    101 H101      -75.0870   24.5697  -77.6578 H         1 UNK         0.3105 
    102 H102      -75.5263   28.0582  -77.0533 H         1 UNK         0.0547 
    103 H103      -76.4779   27.6862  -79.2690 H         1 UNK         0.0837 
    104 H104      -76.9483   26.0476  -78.8591 H         1 UNK         0.0837 
    105 H105      -77.7324   27.4158  -78.0686 H         1 UNK         0.0837 
    106 H106      -77.1648   25.9621  -76.2080 H         1 UNK         0.3020 
    107 H107      -75.4189   24.9596  -73.2320 H         1 UNK         0.1245 
    108 H108      -78.0002   26.5103  -73.7842 H         1 UNK         0.0781 
    109 H109      -76.7133   27.0221  -72.7468 H         1 UNK         0.0781 
    110 H110      -76.1625   25.4722  -70.2564 H         1 UNK         0.0836 
    111 H111      -77.6803   25.4873  -69.3910 H         1 UNK         0.0836 
    112 H112      -77.7796   24.1577  -74.7655 H         1 UNK         0.3022 
    113 H113      -76.1884   21.3928  -76.3021 H         1 UNK         0.0747 
    114 H114      -77.9253   20.0297  -75.1550 H         1 UNK         0.0793 
    115 H115      -76.6320   20.4299  -74.0377 H         1 UNK         0.0793 
    116 H116      -78.1589   21.2966  -73.9488 H         1 UNK         0.0793 
    117 H117      -78.9296   22.2055  -76.1317 H         1 UNK         0.3047 
    118 H118      -78.8580   24.7108  -78.6446 H         1 UNK         0.0822 
    119 H119      -80.5595   23.2569  -79.6976 H         1 UNK         0.0807 
    120 H120      -80.0322   21.8798  -78.7291 H         1 UNK         0.0807 
    121 H121      -78.9614   22.5734  -79.9388 H         1 UNK         0.0807 
    122 H122      -81.0457   23.6383  -77.2385 H         1 UNK         0.2946 
    123 H123      -82.1008   25.1913  -75.7419 H         1 UNK         0.1144 
    124 H124      -82.0984   23.9463  -73.5645 H         1 UNK         0.0793 
    125 H125      -80.3443   23.7893  -73.6377 H         1 UNK         0.0793 
    126 H126      -81.3592   22.9723  -74.8190 H         1 UNK         0.0793 
    127 H127      -80.9976   26.1563  -73.3168 H         1 UNK         0.2896 
@<TRIPOS>BOND
     1    1    2 1    
     2    1   67 1    
     3    1   68 1    
     4    1   69 1    
     5    2    3 2    
     6    2    4 am   BACKBONE|DICT|INTERRES
     7    4    5 1    
     8    4   70 1    
     9    5    6 1    
    10    5   65 1    
    11    5   71 1    
    12    6    7 1    
    13    6   72 1    
    14    6   73 1    
    15    7    8 1    
    16    8    9 1    
    17    8   74 1    
    18    8   75 1    
    19    9   10 ar   
    20    9   14 ar   
    21   10   11 ar   
    22   10   76 1    
    23   11   12 ar   
    24   11   48 1    
    25   12   13 ar   
    26   12   77 1    
    27   13   14 ar   
    28   13   15 1    
    29   14   78 1    
    30   15   16 1    
    31   15   79 1    
    32   15   80 1    
    33   16   17 1    
    34   17   18 1    
    35   17   81 1    
    36   17   82 1    
    37   18   19 1    
    38   18   22 1    
    39   18   83 1    
    40   19   20 am   BACKBONE|DICT|INTERRES
    41   19   21 2    
    42   20   84 1    
    43   20   85 1    
    44   22   23 am   BACKBONE|DICT|INTERRES
    45   22   86 1    
    46   23   24 2    
    47   23   25 1    
    48   25   26 1    
    49   25   27 1    
    50   25   87 1    
    51   26   88 1    
    52   26   89 1    
    53   26   90 1    
    54   27   28 am   BACKBONE|DICT|INTERRES
    55   27   91 1    
    56   28   29 2    
    57   28   30 1    
    58   30   31 1    
    59   30   32 1    
    60   30   92 1    
    61   31   93 1    
    62   31   94 1    
    63   31   95 1    
    64   32   33 am   BACKBONE|DICT|INTERRES
    65   32   96 1    
    66   33   34 2    
    67   33   35 1    
    68   35   36 1    
    69   35   37 1    
    70   35   97 1    
    71   36   98 1    
    72   36   99 1    
    73   36  100 1    
    74   37   38 am   BACKBONE|DICT|INTERRES
    75   37  101 1    
    76   38   39 2    
    77   38   40 1    
    78   40   41 1    
    79   40   42 1    
    80   40  102 1    
    81   41  103 1    
    82   41  104 1    
    83   41  105 1    
    84   42   43 am   BACKBONE|DICT|INTERRES
    85   42  106 1    
    86   43   44 2    
    87   43   45 1    
    88   45   46 1    
    89   45   49 1    
    90   45  107 1    
    91   46   47 1    
    92   46  108 1    
    93   46  109 1    
    94   47   48 1    
    95   48  110 1    
    96   48  111 1    
    97   49   50 am   BACKBONE|DICT|INTERRES
    98   49  112 1    
    99   50   51 2    
   100   50   52 1    
   101   52   53 1    
   102   52   54 1    
   103   52  113 1    
   104   53  114 1    
   105   53  115 1    
   106   53  116 1    
   107   54   55 am   BACKBONE|DICT|INTERRES
   108   54  117 1    
   109   55   56 2    
   110   55   57 1    
   111   57   58 1    
   112   57   59 1    
   113   57  118 1    
   114   58  119 1    
   115   58  120 1    
   116   58  121 1    
   117   59   60 am   BACKBONE|DICT|INTERRES
   118   59  122 1    
   119   60   61 2    
   120   60   62 1    
   121   62   63 1    
   122   62   64 1    
   123   62  123 1    
   124   63  124 1    
   125   63  125 1    
   126   63  126 1    
   127   64   65 am   BACKBONE|DICT|INTERRES
   128   64  127 1    
   129   65   66 2    
@<TRIPOS>SUBSTRUCTURE
     1 UNK         1 GROUP             0       ****    0 ROOT    
