@<TRIPOS>MOLECULE
3R135
127   129    1
SMALL
USER_CHARGES


@<TRIPOS>ATOM
      1 CA        -83.9949   24.3525  -73.9920 C.3       0 UNK        -0.1998 
      2 C         -83.0276   25.5204  -74.1035 C.2       0 UNK         0.4909 
      3 O         -82.7660   25.9961  -75.2088 O.2       0 UNK        -0.5240 
      4 N         -82.4945   25.9884  -72.9668 N.am      1 UNK        -0.4739 
      5 CA        -81.5828   27.1348  -72.8837 C.3       1 UNK         0.0864 
      6 C6        -81.3388   27.5654  -71.4172 C.3       11 UNK        -0.0881 
      7 S7        -80.9483   29.3432  -71.2943 S.3       11 UNK        -0.2682 
      8 C8        -79.5367   29.3460  -70.1462 C.3       11 UNK         0.0289 
      9 C9        -78.2401   28.8939  -70.8045 C.ar      11 UNK        -0.0687 
     10 C10       -77.6831   27.6497  -70.4923 C.ar      11 UNK        -0.0823 
     11 C11       -76.4525   27.2631  -71.0331 C.ar      11 UNK        -0.0830 
     12 C12       -75.7762   28.1457  -71.8820 C.ar      11 UNK        -0.1021 
     13 C13       -76.3432   29.3721  -72.2457 C.ar      11 UNK        -0.0753 
     14 C14       -77.5726   29.7430  -71.6928 C.ar      11 UNK        -0.0933 
     15 C15       -75.6294   30.3103  -73.2147 C.3       11 UNK         0.0166 
     16 S16       -74.8760   29.4253  -74.6186 S.3       11 UNK        -0.2615 
     17 C17       -74.4066   30.7858  -75.7373 C.3       11 UNK        -0.0865 
     18 CA        -73.1836   31.6535  -75.3109 C.3       10 UNK         0.0862 
     19 C         -73.5843   32.9243  -74.4943 C.2       10 UNK         0.5551 
     20 N         -72.9472   33.2525  -73.3821 N.am      10 UNK        -0.7319 
     21 O         -74.4721   33.6626  -74.9144 O.2       10 UNK        -0.5018 
     22 N         -71.9981   30.8546  -74.9221 N.am      10 UNK        -0.4509 
     23 C         -71.5755   30.4446  -73.7162 C.2       10 UNK         0.4899 
     24 O         -72.1166   30.7176  -72.6446 O.2       10 UNK        -0.4839 
     25 CA        -70.3025   29.5773  -73.7310 C.3       9 UNK         0.0222 
     26 CB        -69.7214   29.3243  -72.3225 C.3       9 UNK        -0.1966 
     27 N         -70.5140   28.3162  -74.4510 N.am      9 UNK        -0.4218 
     28 C         -71.3826   27.3406  -74.1450 C.2       9 UNK         0.5020 
     29 O         -72.1108   27.3344  -73.1514 O.2       9 UNK        -0.5274 
     30 CA        -71.4458   26.1640  -75.1325 C.3       8 UNK         0.0270 
     31 CB        -71.4021   24.8112  -74.4017 C.3       8 UNK        -0.1976 
     32 N         -72.6557   26.2395  -75.9507 N.am      8 UNK        -0.4313 
     33 C         -72.8722   27.1583  -76.9043 C.2       8 UNK         0.5041 
     34 O         -72.0409   28.0161  -77.2121 O.2       8 UNK        -0.5577 
     35 CA        -74.2312   27.1286  -77.6377 C.3       7 UNK         0.0284 
     36 CB        -74.1336   27.6475  -79.0875 C.3       7 UNK        -0.1958 
     37 N         -74.9179   25.8332  -77.5957 N.am      7 UNK        -0.4454 
     38 C         -74.4908   24.6550  -78.0742 C.2       7 UNK         0.5089 
     39 O         -73.4267   24.5000  -78.6756 O.2       7 UNK        -0.5125 
     40 CA        -75.4134   23.4461  -77.8126 C.3       6 UNK         0.0408 
     41 CB        -74.6888   22.0926  -77.9661 C.3       6 UNK        -0.1791 
     42 N         -76.1053   23.5213  -76.5189 N.am      6 UNK        -0.4762 
     43 C         -75.5503   23.5877  -75.2965 C.2       6 UNK         0.5007 
     44 O         -74.3344   23.5587  -75.1110 O.2       6 UNK        -0.5032 
     45 CA        -76.4944   23.7501  -74.0790 C.3       5 UNK         0.0783 
     46 C46       -76.2798   25.1173  -73.3802 C.3       11 UNK        -0.0857 
     47 S47       -75.0108   25.0646  -72.0719 S.3       11 UNK        -0.2512 
     48 C48       -75.8681   25.8935  -70.6839 C.3       11 UNK         0.0225 
     49 N         -77.9080   23.5721  -74.4214 N.am      5 UNK        -0.4615 
     50 C         -78.5007   22.4117  -74.7250 C.2       4 UNK         0.5053 
     51 O         -77.9408   21.3174  -74.6675 O.2       4 UNK        -0.5105 
     52 CA        -79.9537   22.5013  -75.2204 C.3       4 UNK         0.0263 
     53 CB        -80.9341   22.3978  -74.0425 C.3       4 UNK        -0.1981 
     54 N         -80.2061   23.7321  -75.9820 N.am      4 UNK        -0.4224 
     55 C         -79.6982   23.9760  -77.2002 C.2       3 UNK         0.4895 
     56 O         -79.0315   23.1612  -77.8375 O.2       3 UNK        -0.5091 
     57 CA        -79.9201   25.3795  -77.7858 C.3       3 UNK         0.0250 
     58 CB        -81.3106   25.4938  -78.4300 C.3       3 UNK        -0.1996 
     59 N         -79.7392   26.4365  -76.7880 N.am      3 UNK        -0.4254 
     60 C         -78.5552   26.7730  -76.2524 C.2       2 UNK         0.5004 
     61 O         -77.4889   26.2497  -76.5713 O.2       2 UNK        -0.5226 
     62 CA        -78.5526   27.8547  -75.1582 C.3       2 UNK         0.0269 
     63 CB        -78.3168   29.2381  -75.7834 C.3       2 UNK        -0.1926 
     64 N         -79.7751   27.8937  -74.3514 N.am      2 UNK        -0.4687 
     65 C         -80.2602   26.8727  -73.6322 C.2       1 UNK         0.5165 
     66 O         -79.7256   25.7625  -73.5662 O.2       1 UNK        -0.5079 
     67 H67       -85.0210   24.7184  -73.9758 H         1 UNK         0.0900 
     68 H68       -83.8877   23.6874  -74.8483 H         1 UNK         0.0900 
     69 H69       -83.8219   23.7714  -73.0863 H         1 UNK         0.0900 
     70 H70       -82.7181   25.5373  -72.0914 H         1 UNK         0.2959 
     71 H71       -82.0998   27.9492  -73.3972 H         1 UNK         0.1079 
     72 H72       -80.5629   26.9582  -70.9469 H         1 UNK         0.0837 
     73 H73       -82.2395   27.4071  -70.8219 H         1 UNK         0.0837 
     74 H74       -79.7728   28.7274  -69.2788 H         1 UNK         0.0685 
     75 H75       -79.4032   30.3593  -69.7648 H         1 UNK         0.0685 
     76 H76       -78.2022   26.9866  -69.8137 H         1 UNK         0.1434 
     77 H77       -74.8125   27.8650  -72.2861 H         1 UNK         0.1329 
     78 H78       -78.0097   30.7000  -71.9431 H         1 UNK         0.1335 
     79 H79       -74.8537   30.8499  -72.6712 H         1 UNK         0.0680 
     80 H80       -76.3237   31.0571  -73.6024 H         1 UNK         0.0680 
     81 H81       -74.1721   30.3180  -76.6944 H         1 UNK         0.1032 
     82 H82       -75.2878   31.3973  -75.9401 H         1 UNK         0.1032 
     83 H83       -72.8375   32.1095  -76.2396 H         1 UNK         0.0461 
     84 H84       -73.2064   34.0867  -72.8806 H         1 UNK         0.3453 
     85 H85       -72.3253   32.5697  -72.9645 H         1 UNK         0.3453 
     86 H86       -71.4499   30.5426  -75.7107 H         1 UNK         0.2984 
     87 H87       -69.5515   30.1331  -74.2947 H         1 UNK         0.0554 
     88 H88       -69.4835   30.2659  -71.8263 H         1 UNK         0.0847 
     89 H89       -68.8015   28.7419  -72.3709 H         1 UNK         0.0847 
     90 H90       -70.4223   28.7902  -71.6801 H         1 UNK         0.0847 
     91 H91       -70.0109   28.2266  -75.3237 H         1 UNK         0.3141 
     92 H92       -70.5808   26.2081  -75.7978 H         1 UNK         0.0743 
     93 H93       -70.4940   24.7200  -73.8047 H         1 UNK         0.0784 
     94 H94       -71.4158   23.9787  -75.1055 H         1 UNK         0.0784 
     95 H95       -72.2497   24.6894  -73.7256 H         1 UNK         0.0784 
     96 H96       -73.3802   25.5622  -75.7472 H         1 UNK         0.3213 
     97 H97       -74.8789   27.8148  -77.0919 H         1 UNK         0.0855 
     98 H98       -73.4521   27.0436  -79.6872 H         1 UNK         0.0814 
     99 H99       -73.7656   28.6739  -79.1127 H         1 UNK         0.0814 
    100 H100      -75.1075   27.6432  -79.5768 H         1 UNK         0.0814 
    101 H101      -75.8338   25.8511  -77.1440 H         1 UNK         0.3105 
    102 H102      -76.1935   23.4911  -78.5738 H         1 UNK         0.0547 
    103 H103      -75.3660   21.2579  -77.7858 H         1 UNK         0.0837 
    104 H104      -73.8505   22.0010  -77.2747 H         1 UNK         0.0837 
    105 H105      -74.2914   21.9740  -78.9747 H         1 UNK         0.0837 
    106 H106      -77.1137   23.5856  -76.5776 H         1 UNK         0.3020 
    107 H107      -76.2372   22.9514  -73.3795 H         1 UNK         0.1245 
    108 H108      -77.2101   25.4449  -72.9158 H         1 UNK         0.0781 
    109 H109      -76.0217   25.9050  -74.0913 H         1 UNK         0.0781 
    110 H110      -75.1646   26.0131  -69.8592 H         1 UNK         0.0836 
    111 H111      -76.6547   25.2272  -70.3261 H         1 UNK         0.0836 
    112 H112      -78.4791   24.4112  -74.4145 H         1 UNK         0.3022 
    113 H113      -80.1274   21.6492  -75.8813 H         1 UNK         0.0747 
    114 H114      -81.9611   22.3132  -74.3943 H         1 UNK         0.0793 
    115 H115      -80.7297   21.5103  -73.4418 H         1 UNK         0.0793 
    116 H116      -80.8675   23.2612  -73.3797 H         1 UNK         0.0793 
    117 H117      -80.7141   24.4705  -75.5131 H         1 UNK         0.3047 
    118 H118      -79.1743   25.5301  -78.5698 H         1 UNK         0.0822 
    119 H119      -81.4522   26.4682  -78.8979 H         1 UNK         0.0807 
    120 H120      -82.1105   25.3514  -77.7031 H         1 UNK         0.0807 
    121 H121      -81.4413   24.7401  -79.2076 H         1 UNK         0.0807 
    122 H122      -80.5734   26.8957  -76.4484 H         1 UNK         0.2946 
    123 H123      -77.7213   27.6369  -74.4840 H         1 UNK         0.1144 
    124 H124      -78.1999   30.0039  -75.0167 H         1 UNK         0.0793 
    125 H125      -79.1396   29.5347  -76.4348 H         1 UNK         0.0793 
    126 H126      -77.4066   29.2442  -76.3850 H         1 UNK         0.0793 
    127 H127      -80.2691   28.7744  -74.3319 H         1 UNK         0.2896 
@<TRIPOS>BOND
     1    1    2 1    
     2    1   67 1    
     3    1   68 1    
     4    1   69 1    
     5    2    3 2    
     6    2    4 am   BACKBONE|DICT|INTERRES
     7    4    5 1    
     8    4   70 1    
     9    5    6 1    
    10    5   65 1    
    11    5   71 1    
    12    6    7 1    
    13    6   72 1    
    14    6   73 1    
    15    7    8 1    
    16    8    9 1    
    17    8   74 1    
    18    8   75 1    
    19    9   10 ar   
    20    9   14 ar   
    21   10   11 ar   
    22   10   76 1    
    23   11   12 ar   
    24   11   48 1    
    25   12   13 ar   
    26   12   77 1    
    27   13   14 ar   
    28   13   15 1    
    29   14   78 1    
    30   15   16 1    
    31   15   79 1    
    32   15   80 1    
    33   16   17 1    
    34   17   18 1    
    35   17   81 1    
    36   17   82 1    
    37   18   19 1    
    38   18   22 1    
    39   18   83 1    
    40   19   20 am   BACKBONE|DICT|INTERRES
    41   19   21 2    
    42   20   84 1    
    43   20   85 1    
    44   22   23 am   BACKBONE|DICT|INTERRES
    45   22   86 1    
    46   23   24 2    
    47   23   25 1    
    48   25   26 1    
    49   25   27 1    
    50   25   87 1    
    51   26   88 1    
    52   26   89 1    
    53   26   90 1    
    54   27   28 am   BACKBONE|DICT|INTERRES
    55   27   91 1    
    56   28   29 2    
    57   28   30 1    
    58   30   31 1    
    59   30   32 1    
    60   30   92 1    
    61   31   93 1    
    62   31   94 1    
    63   31   95 1    
    64   32   33 am   BACKBONE|DICT|INTERRES
    65   32   96 1    
    66   33   34 2    
    67   33   35 1    
    68   35   36 1    
    69   35   37 1    
    70   35   97 1    
    71   36   98 1    
    72   36   99 1    
    73   36  100 1    
    74   37   38 am   BACKBONE|DICT|INTERRES
    75   37  101 1    
    76   38   39 2    
    77   38   40 1    
    78   40   41 1    
    79   40   42 1    
    80   40  102 1    
    81   41  103 1    
    82   41  104 1    
    83   41  105 1    
    84   42   43 am   BACKBONE|DICT|INTERRES
    85   42  106 1    
    86   43   44 2    
    87   43   45 1    
    88   45   46 1    
    89   45   49 1    
    90   45  107 1    
    91   46   47 1    
    92   46  108 1    
    93   46  109 1    
    94   47   48 1    
    95   48  110 1    
    96   48  111 1    
    97   49   50 am   BACKBONE|DICT|INTERRES
    98   49  112 1    
    99   50   51 2    
   100   50   52 1    
   101   52   53 1    
   102   52   54 1    
   103   52  113 1    
   104   53  114 1    
   105   53  115 1    
   106   53  116 1    
   107   54   55 am   BACKBONE|DICT|INTERRES
   108   54  117 1    
   109   55   56 2    
   110   55   57 1    
   111   57   58 1    
   112   57   59 1    
   113   57  118 1    
   114   58  119 1    
   115   58  120 1    
   116   58  121 1    
   117   59   60 am   BACKBONE|DICT|INTERRES
   118   59  122 1    
   119   60   61 2    
   120   60   62 1    
   121   62   63 1    
   122   62   64 1    
   123   62  123 1    
   124   63  124 1    
   125   63  125 1    
   126   63  126 1    
   127   64   65 am   BACKBONE|DICT|INTERRES
   128   64  127 1    
   129   65   66 2    
@<TRIPOS>SUBSTRUCTURE
     1 UNK         1 GROUP             0       ****    0 ROOT    
