@<TRIPOS>MOLECULE
3R135
127   129    1
SMALL
USER_CHARGES


@<TRIPOS>ATOM
      1 CA        -80.7754   24.9593  -69.7368 C.3       0 UNK        -0.1998 
      2 C         -81.8341   25.5545  -70.6524 C.2       0 UNK         0.4909 
      3 O         -83.0187   25.2642  -70.4846 O.2       0 UNK        -0.5240 
      4 N         -81.4138   26.3761  -71.6226 N.am      1 UNK        -0.4739 
      5 CA        -82.2882   27.0596  -72.5897 C.3       1 UNK         0.0864 
      6 C6        -81.9446   28.5675  -72.7261 C.3       11 UNK        -0.0881 
      7 S7        -82.1645   29.4472  -71.1364 S.3       11 UNK        -0.2682 
      8 C8        -80.9236   30.7879  -71.2320 C.3       11 UNK         0.0289 
      9 C9        -79.4616   30.3465  -71.3344 C.ar      11 UNK        -0.0687 
     10 C10       -79.0348   29.0621  -70.9746 C.ar      11 UNK        -0.0823 
     11 C11       -77.7082   28.6730  -71.1679 C.ar      11 UNK        -0.0830 
     12 C12       -76.7828   29.6007  -71.6523 C.ar      11 UNK        -0.1021 
     13 C13       -77.1789   30.8995  -71.9862 C.ar      11 UNK        -0.0753 
     14 C14       -78.5215   31.2595  -71.8255 C.ar      11 UNK        -0.0933 
     15 C15       -76.1924   31.9000  -72.5867 C.3       11 UNK         0.0166 
     16 S16       -74.6733   32.1170  -71.5988 S.3       11 UNK        -0.2615 
     17 C17       -73.5440   30.9011  -72.3665 C.3       11 UNK        -0.0865 
     18 CA        -72.4650   31.5536  -73.2842 C.3       10 UNK         0.0862 
     19 C         -71.1788   31.9984  -72.5192 C.2       10 UNK         0.5551 
     20 N         -69.9994   31.9309  -73.1252 N.am      10 UNK        -0.7319 
     21 O         -71.2463   32.4366  -71.3736 O.2       10 UNK        -0.5018 
     22 N         -72.2182   30.7553  -74.5003 N.am      10 UNK        -0.4509 
     23 C         -71.7778   29.4902  -74.5281 C.2       10 UNK         0.4899 
     24 O         -71.4887   28.8441  -73.5189 O.2       10 UNK        -0.4839 
     25 CA        -71.6626   28.8618  -75.9278 C.3       9 UNK         0.0222 
     26 CB        -70.3826   29.3127  -76.6606 C.3       9 UNK        -0.1966 
     27 N         -71.8090   27.4023  -75.8944 N.am      9 UNK        -0.4218 
     28 C         -70.9348   26.4647  -75.4979 C.2       9 UNK         0.5020 
     29 O         -69.7632   26.6806  -75.1830 O.2       9 UNK        -0.5274 
     30 CA        -71.4628   25.0189  -75.4421 C.3       8 UNK         0.0270 
     31 CB        -72.0625   24.7250  -74.0573 C.3       8 UNK        -0.1976 
     32 N         -72.4573   24.7194  -76.4780 N.am      8 UNK        -0.4313 
     33 C         -72.1822   24.6262  -77.7876 C.2       8 UNK         0.5041 
     34 O         -71.0483   24.7269  -78.2585 O.2       8 UNK        -0.5577 
     35 CA        -73.3705   24.3942  -78.7375 C.3       7 UNK         0.0284 
     36 CB        -73.7901   22.9154  -78.7405 C.3       7 UNK        -0.1958 
     37 N         -74.5250   25.2347  -78.4146 N.am      7 UNK        -0.4454 
     38 C         -74.5515   26.5713  -78.5191 C.2       7 UNK         0.5089 
     39 O         -73.6251   27.2468  -78.9666 O.2       7 UNK        -0.5125 
     40 CA        -75.8146   27.2793  -77.9997 C.3       6 UNK         0.0408 
     41 CB        -76.9126   27.3123  -79.0746 C.3       6 UNK        -0.1791 
     42 N         -76.3311   26.6666  -76.7727 N.am      6 UNK        -0.4762 
     43 C         -75.6939   26.6942  -75.5925 C.2       6 UNK         0.5007 
     44 O         -74.6248   27.2738  -75.4093 O.2       6 UNK        -0.5032 
     45 CA        -76.3392   25.9200  -74.4293 C.3       5 UNK         0.0783 
     46 C46       -77.4029   26.7998  -73.7365 C.3       11 UNK        -0.0857 
     47 S47       -77.9980   26.0930  -72.1612 S.3       11 UNK        -0.2512 
     48 C48       -77.2863   27.2307  -70.9199 C.3       11 UNK         0.0225 
     49 N         -76.8766   24.6339  -74.8817 N.am      5 UNK        -0.4615 
     50 C         -76.1184   23.6088  -75.2988 C.2       4 UNK         0.5053 
     51 O         -74.8881   23.6309  -75.3006 O.2       4 UNK        -0.5105 
     52 CA        -76.8447   22.3720  -75.8597 C.3       4 UNK         0.0263 
     53 CB        -77.1939   21.3959  -74.7256 C.3       4 UNK        -0.1981 
     54 N         -78.0597   22.7073  -76.6055 N.am      4 UNK        -0.4224 
     55 C         -78.1027   23.4949  -77.6901 C.2       3 UNK         0.4895 
     56 O         -77.0976   23.9248  -78.2552 O.2       3 UNK        -0.5091 
     57 CA        -79.4912   23.9254  -78.2031 C.3       3 UNK         0.0250 
     58 CB        -79.8776   23.1072  -79.4451 C.3       3 UNK        -0.1996 
     59 N         -80.5723   23.8412  -77.2098 N.am      3 UNK        -0.4254 
     60 C         -80.5989   24.4763  -76.0284 C.2       2 UNK         0.5004 
     61 O         -79.6875   25.2022  -75.6255 O.2       2 UNK        -0.5226 
     62 CA        -81.8086   24.1771  -75.1278 C.3       2 UNK         0.0269 
     63 CB        -81.7577   22.7229  -74.6242 C.3       2 UNK        -0.1926 
     64 N         -81.8606   25.0587  -73.9610 N.am      2 UNK        -0.4687 
     65 C         -82.3068   26.3224  -73.9497 C.2       1 UNK         0.5165 
     66 O         -82.7496   26.8896  -74.9503 O.2       1 UNK        -0.5079 
     67 H67       -79.8207   25.4753  -69.8291 H         1 UNK         0.0900 
     68 H68       -80.6210   23.9071  -69.9741 H         1 UNK         0.0900 
     69 H69       -81.0939   25.0317  -68.6972 H         1 UNK         0.0900 
     70 H70       -80.4221   26.5339  -71.7477 H         1 UNK         0.2959 
     71 H71       -83.3209   27.0088  -72.2374 H         1 UNK         0.1079 
     72 H72       -80.9247   28.6938  -73.0926 H         1 UNK         0.0837 
     73 H73       -82.5939   29.0509  -73.4584 H         1 UNK         0.0837 
     74 H74       -81.1753   31.4164  -72.0879 H         1 UNK         0.0685 
     75 H75       -81.0303   31.4155  -70.3465 H         1 UNK         0.0685 
     76 H76       -79.7381   28.3418  -70.5848 H         1 UNK         0.1434 
     77 H77       -75.7597   29.2914  -71.7979 H         1 UNK         0.1329 
     78 H78       -78.8442   32.2535  -72.1045 H         1 UNK         0.1335 
     79 H79       -75.9400   31.5955  -73.6034 H         1 UNK         0.0680 
     80 H80       -76.6638   32.8798  -72.6775 H         1 UNK         0.0680 
     81 H81       -74.1410   30.2004  -72.9497 H         1 UNK         0.1032 
     82 H82       -73.0814   30.2969  -71.5837 H         1 UNK         0.1032 
     83 H83       -72.8820   32.4839  -73.6714 H         1 UNK         0.0461 
     84 H84       -69.1720   32.2274  -72.6320 H         1 UNK         0.3453 
     85 H85       -69.9293   31.5779  -74.0658 H         1 UNK         0.3453 
     86 H86       -72.4126   31.2231  -75.3744 H         1 UNK         0.2984 
     87 H87       -72.5170   29.2113  -76.5100 H         1 UNK         0.0554 
     88 H88       -70.2863   28.8212  -77.6288 H         1 UNK         0.0847 
     89 H89       -69.4828   29.0987  -76.0833 H         1 UNK         0.0847 
     90 H90       -70.3962   30.3875  -76.8439 H         1 UNK         0.0847 
     91 H91       -72.7687   27.0949  -76.0217 H         1 UNK         0.3141 
     92 H92       -70.6119   24.3508  -75.5915 H         1 UNK         0.0743 
     93 H93       -72.9349   25.3482  -73.8565 H         1 UNK         0.0784 
     94 H94       -72.3680   23.6822  -73.9697 H         1 UNK         0.0784 
     95 H95       -71.3351   24.9181  -73.2676 H         1 UNK         0.0784 
     96 H96       -73.4065   24.5369  -76.1610 H         1 UNK         0.3213 
     97 H97       -73.0440   24.6553  -79.7465 H         1 UNK         0.0855 
     98 H98       -74.1231   22.5867  -77.7561 H         1 UNK         0.0814 
     99 H99       -72.9567   22.2753  -79.0328 H         1 UNK         0.0814 
    100 H100      -74.6020   22.7345  -79.4453 H         1 UNK         0.0814 
    101 H101      -75.3735   24.7605  -78.1152 H         1 UNK         0.3105 
    102 H102      -75.5434   28.3114  -77.7668 H         1 UNK         0.0547 
    103 H103      -76.5592   27.8221  -79.9719 H         1 UNK         0.0837 
    104 H104      -77.2233   26.3117  -79.3743 H         1 UNK         0.0837 
    105 H105      -77.7952   27.8483  -78.7255 H         1 UNK         0.0837 
    106 H106      -77.1919   26.1423  -76.8445 H         1 UNK         0.3020 
    107 H107      -75.5453   25.7151  -73.7073 H         1 UNK         0.1245 
    108 H108      -78.2647   26.9539  -74.3869 H         1 UNK         0.0781 
    109 H109      -76.9982   27.7950  -73.5627 H         1 UNK         0.0781 
    110 H110      -76.1994   27.1348  -70.9318 H         1 UNK         0.0836 
    111 H111      -77.6093   26.9233  -69.9244 H         1 UNK         0.0836 
    112 H112      -77.8872   24.5796  -74.9595 H         1 UNK         0.3022 
    113 H113      -76.1620   21.8701  -76.5479 H         1 UNK         0.0747 
    114 H114      -77.6356   20.4776  -75.1133 H         1 UNK         0.0793 
    115 H115      -76.3004   21.1129  -74.1672 H         1 UNK         0.0793 
    116 H116      -77.8965   21.8346  -74.0157 H         1 UNK         0.0793 
    117 H117      -78.9349   22.3926  -76.2148 H         1 UNK         0.3047 
    118 H118      -79.4062   24.9733  -78.4981 H         1 UNK         0.0822 
    119 H119      -80.8037   23.4719  -79.8899 H         1 UNK         0.0807 
    120 H120      -80.0101   22.0508  -79.2080 H         1 UNK         0.0807 
    121 H121      -79.1051   23.1741  -80.2130 H         1 UNK         0.0807 
    122 H122      -81.3546   23.2511  -77.4559 H         1 UNK         0.2946 
    123 H123      -82.7168   24.3212  -75.7179 H         1 UNK         0.1144 
    124 H124      -81.7871   22.0111  -75.4500 H         1 UNK         0.0793 
    125 H125      -82.6099   22.4975  -73.9824 H         1 UNK         0.0793 
    126 H126      -80.8495   22.5243  -74.0533 H         1 UNK         0.0793 
    127 H127      -81.4846   24.6920  -73.0995 H         1 UNK         0.2896 
@<TRIPOS>BOND
     1    1    2 1    
     2    1   67 1    
     3    1   68 1    
     4    1   69 1    
     5    2    3 2    
     6    2    4 am   BACKBONE|DICT|INTERRES
     7    4    5 1    
     8    4   70 1    
     9    5    6 1    
    10    5   65 1    
    11    5   71 1    
    12    6    7 1    
    13    6   72 1    
    14    6   73 1    
    15    7    8 1    
    16    8    9 1    
    17    8   74 1    
    18    8   75 1    
    19    9   10 ar   
    20    9   14 ar   
    21   10   11 ar   
    22   10   76 1    
    23   11   12 ar   
    24   11   48 1    
    25   12   13 ar   
    26   12   77 1    
    27   13   14 ar   
    28   13   15 1    
    29   14   78 1    
    30   15   16 1    
    31   15   79 1    
    32   15   80 1    
    33   16   17 1    
    34   17   18 1    
    35   17   81 1    
    36   17   82 1    
    37   18   19 1    
    38   18   22 1    
    39   18   83 1    
    40   19   20 am   BACKBONE|DICT|INTERRES
    41   19   21 2    
    42   20   84 1    
    43   20   85 1    
    44   22   23 am   BACKBONE|DICT|INTERRES
    45   22   86 1    
    46   23   24 2    
    47   23   25 1    
    48   25   26 1    
    49   25   27 1    
    50   25   87 1    
    51   26   88 1    
    52   26   89 1    
    53   26   90 1    
    54   27   28 am   BACKBONE|DICT|INTERRES
    55   27   91 1    
    56   28   29 2    
    57   28   30 1    
    58   30   31 1    
    59   30   32 1    
    60   30   92 1    
    61   31   93 1    
    62   31   94 1    
    63   31   95 1    
    64   32   33 am   BACKBONE|DICT|INTERRES
    65   32   96 1    
    66   33   34 2    
    67   33   35 1    
    68   35   36 1    
    69   35   37 1    
    70   35   97 1    
    71   36   98 1    
    72   36   99 1    
    73   36  100 1    
    74   37   38 am   BACKBONE|DICT|INTERRES
    75   37  101 1    
    76   38   39 2    
    77   38   40 1    
    78   40   41 1    
    79   40   42 1    
    80   40  102 1    
    81   41  103 1    
    82   41  104 1    
    83   41  105 1    
    84   42   43 am   BACKBONE|DICT|INTERRES
    85   42  106 1    
    86   43   44 2    
    87   43   45 1    
    88   45   46 1    
    89   45   49 1    
    90   45  107 1    
    91   46   47 1    
    92   46  108 1    
    93   46  109 1    
    94   47   48 1    
    95   48  110 1    
    96   48  111 1    
    97   49   50 am   BACKBONE|DICT|INTERRES
    98   49  112 1    
    99   50   51 2    
   100   50   52 1    
   101   52   53 1    
   102   52   54 1    
   103   52  113 1    
   104   53  114 1    
   105   53  115 1    
   106   53  116 1    
   107   54   55 am   BACKBONE|DICT|INTERRES
   108   54  117 1    
   109   55   56 2    
   110   55   57 1    
   111   57   58 1    
   112   57   59 1    
   113   57  118 1    
   114   58  119 1    
   115   58  120 1    
   116   58  121 1    
   117   59   60 am   BACKBONE|DICT|INTERRES
   118   59  122 1    
   119   60   61 2    
   120   60   62 1    
   121   62   63 1    
   122   62   64 1    
   123   62  123 1    
   124   63  124 1    
   125   63  125 1    
   126   63  126 1    
   127   64   65 am   BACKBONE|DICT|INTERRES
   128   64  127 1    
   129   65   66 2    
@<TRIPOS>SUBSTRUCTURE
     1 UNK         1 GROUP             0       ****    0 ROOT    
