@<TRIPOS>MOLECULE
3R135
127   129    1
SMALL
USER_CHARGES


@<TRIPOS>ATOM
      1 CA        -78.8293   32.1889  -73.7451 C.3       0 UNK        -0.1998 
      2 C         -79.5646   30.8603  -73.6772 C.2       0 UNK         0.4909 
      3 O         -80.7650   30.8125  -73.9466 O.2       0 UNK        -0.5240 
      4 N         -78.8483   29.7858  -73.3136 N.am      1 UNK        -0.4739 
      5 CA        -79.3517   28.4072  -73.2081 C.3       1 UNK         0.0864 
      6 C6        -80.4834   28.2739  -72.1473 C.3       11 UNK        -0.0881 
      7 S7        -80.4455   26.6933  -71.2384 S.3       11 UNK        -0.2682 
      8 C8        -79.5773   27.1709  -69.7099 C.3       11 UNK         0.0289 
      9 C9        -78.0739   27.2466  -69.9271 C.ar      11 UNK        -0.0687 
     10 C10       -77.3208   26.0714  -69.9329 C.ar      11 UNK        -0.0823 
     11 C11       -75.9417   26.1120  -70.1492 C.ar      11 UNK        -0.0830 
     12 C12       -75.3110   27.3452  -70.3315 C.ar      11 UNK        -0.1021 
     13 C13       -76.0532   28.5344  -70.3423 C.ar      11 UNK        -0.0753 
     14 C14       -77.4361   28.4747  -70.1306 C.ar      11 UNK        -0.0933 
     15 C15       -75.3866   29.8903  -70.5741 C.3       11 UNK         0.0166 
     16 S16       -74.0284   29.8277  -71.7916 S.3       11 UNK        -0.2615 
     17 C17       -74.1394   31.4685  -72.5817 C.3       11 UNK        -0.0865 
     18 CA        -75.0612   31.4567  -73.8297 C.3       10 UNK         0.0862 
     19 C         -75.1936   32.8748  -74.4553 C.2       10 UNK         0.5551 
     20 N         -74.8969   33.0693  -75.7341 N.am      10 UNK        -0.7319 
     21 O         -75.5879   33.8130  -73.7678 O.2       10 UNK        -0.5018 
     22 N         -74.6770   30.4037  -74.7829 N.am      10 UNK        -0.4509 
     23 C         -75.5115   29.7373  -75.5842 C.2       10 UNK         0.4899 
     24 O         -76.7191   29.9661  -75.6441 O.2       10 UNK        -0.4839 
     25 CA        -74.9239   28.6055  -76.4491 C.3       9 UNK         0.0222 
     26 CB        -74.4719   29.1333  -77.8229 C.3       9 UNK        -0.1966 
     27 N         -73.8693   27.8074  -75.8043 N.am      9 UNK        -0.4218 
     28 C         -72.6366   28.1699  -75.4141 C.2       9 UNK         0.5020 
     29 O         -72.1798   29.3060  -75.5483 O.2       9 UNK        -0.5274 
     30 CA        -71.7704   27.0952  -74.7410 C.3       8 UNK         0.0270 
     31 CB        -72.1284   26.9773  -73.2507 C.3       8 UNK        -0.1976 
     32 N         -71.9396   25.7904  -75.3828 N.am      8 UNK        -0.4313 
     33 C         -71.0311   25.2009  -76.1721 C.2       8 UNK         0.5041 
     34 O         -69.9274   25.6846  -76.4288 O.2       8 UNK        -0.5577 
     35 CA        -71.3981   23.8314  -76.7765 C.3       7 UNK         0.0284 
     36 CB        -70.8353   22.6951  -75.9070 C.3       7 UNK        -0.1958 
     37 N         -72.8390   23.6353  -76.9481 N.am      7 UNK        -0.4454 
     38 C         -73.5985   24.2934  -77.8341 C.2       7 UNK         0.5089 
     39 O         -73.1509   25.0803  -78.6684 O.2       7 UNK        -0.5125 
     40 CA        -75.1180   24.0496  -77.7706 C.3       6 UNK         0.0408 
     41 CB        -75.5326   23.0159  -78.8297 C.3       6 UNK        -0.1791 
     42 N         -75.6449   23.6323  -76.4627 N.am      6 UNK        -0.4762 
     43 C         -75.5001   24.2946  -75.3031 C.2       6 UNK         0.5007 
     44 O         -74.7613   25.2706  -75.1668 O.2       6 UNK        -0.5032 
     45 CA        -76.3600   23.7995  -74.1277 C.3       5 UNK         0.0783 
     46 C46       -76.2388   24.6506  -72.8398 C.3       11 UNK        -0.0857 
     47 S47       -74.6698   24.4003  -71.9389 S.3       11 UNK        -0.2512 
     48 C48       -75.1453   24.8159  -70.2262 C.3       11 UNK         0.0225 
     49 N         -77.7429   23.7372  -74.5930 N.am      5 UNK        -0.4615 
     50 C         -78.6575   22.8557  -74.1727 C.2       4 UNK         0.5053 
     51 O         -78.4265   21.9911  -73.3271 O.2       4 UNK        -0.5105 
     52 CA        -80.0680   22.9362  -74.7893 C.3       4 UNK         0.0263 
     53 CB        -81.0607   23.5359  -73.7806 C.3       4 UNK        -0.1981 
     54 N         -80.1213   23.7064  -76.0354 N.am      4 UNK        -0.4224 
     55 C         -79.5986   23.2999  -77.2021 C.2       3 UNK         0.4895 
     56 O         -79.0716   22.1988  -77.3638 O.2       3 UNK        -0.5091 
     57 CA        -79.6401   24.2839  -78.3874 C.3       3 UNK         0.0250 
     58 CB        -80.7752   23.9084  -79.3537 C.3       3 UNK        -0.1996 
     59 N         -79.7702   25.6997  -78.0229 N.am      3 UNK        -0.4254 
     60 C         -78.9153   26.3938  -77.2583 C.2       2 UNK         0.5004 
     61 O         -77.9329   25.8920  -76.7113 O.2       2 UNK        -0.5226 
     62 CA        -79.1983   27.8938  -77.0527 C.3       2 UNK         0.0269 
     63 CB        -80.5631   28.3719  -77.6000 C.3       2 UNK        -0.1926 
     64 N         -79.0443   28.2855  -75.6490 N.am      2 UNK        -0.4687 
     65 C         -79.7147   27.8041  -74.5894 C.2       1 UNK         0.5165 
     66 O         -80.5824   26.9328  -74.6788 O.2       1 UNK        -0.5079 
     67 H67       -79.5332   33.0199  -73.7018 H         1 UNK         0.0900 
     68 H68       -78.1349   32.2987  -72.9126 H         1 UNK         0.0900 
     69 H69       -78.2731   32.2637  -74.6794 H         1 UNK         0.0900 
     70 H70       -77.8575   29.8922  -73.1483 H         1 UNK         0.2959 
     71 H71       -78.4957   27.8243  -72.8634 H         1 UNK         0.1079 
     72 H72       -80.4131   29.0806  -71.4166 H         1 UNK         0.0837 
     73 H73       -81.4678   28.3961  -72.6034 H         1 UNK         0.0837 
     74 H74       -79.7933   26.4281  -68.9405 H         1 UNK         0.0685 
     75 H75       -79.9671   28.1169  -69.3311 H         1 UNK         0.0685 
     76 H76       -77.8176   25.1206  -69.7943 H         1 UNK         0.1434 
     77 H77       -74.2426   27.3691  -70.4958 H         1 UNK         0.1329 
     78 H78       -78.0211   29.3843  -70.1313 H         1 UNK         0.1335 
     79 H79       -76.1322   30.6107  -70.9141 H         1 UNK         0.0680 
     80 H80       -74.9984   30.2658  -69.6267 H         1 UNK         0.0680 
     81 H81       -73.1306   31.7766  -72.8623 H         1 UNK         0.1032 
     82 H82       -74.4834   32.1979  -71.8457 H         1 UNK         0.1032 
     83 H83       -76.0598   31.2106  -73.4683 H         1 UNK         0.0461 
     84 H84       -74.9914   33.9907  -76.1312 H         1 UNK         0.3453 
     85 H85       -74.5776   32.3017  -76.3025 H         1 UNK         0.3453 
     86 H86       -73.6897   30.1679  -74.8319 H         1 UNK         0.2984 
     87 H87       -75.7400   27.9021  -76.6245 H         1 UNK         0.0554 
     88 H88       -75.2918   29.6397  -78.3340 H         1 UNK         0.0847 
     89 H89       -74.1413   28.3189  -78.4680 H         1 UNK         0.0847 
     90 H90       -73.6524   29.8473  -77.7378 H         1 UNK         0.0847 
     91 H91       -74.1644   26.8585  -75.5728 H         1 UNK         0.3141 
     92 H92       -70.7293   27.4177  -74.8091 H         1 UNK         0.0743 
     93 H93       -71.9090   27.9078  -72.7265 H         1 UNK         0.0784 
     94 H94       -73.1875   26.7618  -73.1027 H         1 UNK         0.0784 
     95 H95       -71.5549   26.1889  -72.7633 H         1 UNK         0.0784 
     96 H96       -72.8448   25.3447  -75.2625 H         1 UNK         0.3213 
     97 H97       -70.9297   23.7727  -77.7616 H         1 UNK         0.0855 
     98 H98       -71.2769   22.6919  -74.9096 H         1 UNK         0.0814 
     99 H99       -69.7560   22.7969  -75.7843 H         1 UNK         0.0814 
    100 H100      -71.0167   21.7201  -76.3598 H         1 UNK         0.0814 
    101 H101      -73.2982   23.0015  -76.3105 H         1 UNK         0.3105 
    102 H102      -75.6008   24.9979  -78.0157 H         1 UNK         0.0547 
    103 H103      -75.0957   22.0369  -78.6294 H         1 UNK         0.0837 
    104 H104      -75.2047   23.3218  -79.8242 H         1 UNK         0.0837 
    105 H105      -76.6149   22.8967  -78.8711 H         1 UNK         0.0837 
    106 H106      -76.2835   22.8489  -76.4764 H         1 UNK         0.3020 
    107 H107      -76.0193   22.7859  -73.9030 H         1 UNK         0.1245 
    108 H108      -77.0496   24.3797  -72.1626 H         1 UNK         0.0781 
    109 H109      -76.3689   25.7137  -73.0530 H         1 UNK         0.0781 
    110 H110      -74.2444   24.9028  -69.6173 H         1 UNK         0.0836 
    111 H111      -75.7177   23.9867  -69.8074 H         1 UNK         0.0836 
    112 H112      -77.9867   24.4143  -75.3117 H         1 UNK         0.3022 
    113 H113      -80.3840   21.9144  -75.0100 H         1 UNK         0.0747 
    114 H114      -80.7834   24.5518  -73.4984 H         1 UNK         0.0793 
    115 H115      -82.0731   23.5629  -74.1838 H         1 UNK         0.0793 
    116 H116      -81.0926   22.9440  -72.8649 H         1 UNK         0.0793 
    117 H117      -80.5086   24.6391  -75.9767 H         1 UNK         0.3047 
    118 H118      -78.6926   24.1783  -78.9189 H         1 UNK         0.0822 
    119 H119      -80.7505   24.5215  -80.2549 H         1 UNK         0.0807 
    120 H120      -81.7555   24.0285  -78.8906 H         1 UNK         0.0807 
    121 H121      -80.6906   22.8681  -79.6716 H         1 UNK         0.0807 
    122 H122      -80.5623   26.1911  -78.4113 H         1 UNK         0.2946 
    123 H123      -78.4164   28.4213  -77.6016 H         1 UNK         0.1144 
    124 H124      -80.7024   29.4375  -77.4161 H         1 UNK         0.0793 
    125 H125      -81.3997   27.8492  -77.1346 H         1 UNK         0.0793 
    126 H126      -80.6338   28.2277  -78.6788 H         1 UNK         0.0793 
    127 H127      -78.3170   28.9758  -75.4779 H         1 UNK         0.2896 
@<TRIPOS>BOND
     1    1    2 1    
     2    1   67 1    
     3    1   68 1    
     4    1   69 1    
     5    2    3 2    
     6    2    4 am   BACKBONE|DICT|INTERRES
     7    4    5 1    
     8    4   70 1    
     9    5    6 1    
    10    5   65 1    
    11    5   71 1    
    12    6    7 1    
    13    6   72 1    
    14    6   73 1    
    15    7    8 1    
    16    8    9 1    
    17    8   74 1    
    18    8   75 1    
    19    9   10 ar   
    20    9   14 ar   
    21   10   11 ar   
    22   10   76 1    
    23   11   12 ar   
    24   11   48 1    
    25   12   13 ar   
    26   12   77 1    
    27   13   14 ar   
    28   13   15 1    
    29   14   78 1    
    30   15   16 1    
    31   15   79 1    
    32   15   80 1    
    33   16   17 1    
    34   17   18 1    
    35   17   81 1    
    36   17   82 1    
    37   18   19 1    
    38   18   22 1    
    39   18   83 1    
    40   19   20 am   BACKBONE|DICT|INTERRES
    41   19   21 2    
    42   20   84 1    
    43   20   85 1    
    44   22   23 am   BACKBONE|DICT|INTERRES
    45   22   86 1    
    46   23   24 2    
    47   23   25 1    
    48   25   26 1    
    49   25   27 1    
    50   25   87 1    
    51   26   88 1    
    52   26   89 1    
    53   26   90 1    
    54   27   28 am   BACKBONE|DICT|INTERRES
    55   27   91 1    
    56   28   29 2    
    57   28   30 1    
    58   30   31 1    
    59   30   32 1    
    60   30   92 1    
    61   31   93 1    
    62   31   94 1    
    63   31   95 1    
    64   32   33 am   BACKBONE|DICT|INTERRES
    65   32   96 1    
    66   33   34 2    
    67   33   35 1    
    68   35   36 1    
    69   35   37 1    
    70   35   97 1    
    71   36   98 1    
    72   36   99 1    
    73   36  100 1    
    74   37   38 am   BACKBONE|DICT|INTERRES
    75   37  101 1    
    76   38   39 2    
    77   38   40 1    
    78   40   41 1    
    79   40   42 1    
    80   40  102 1    
    81   41  103 1    
    82   41  104 1    
    83   41  105 1    
    84   42   43 am   BACKBONE|DICT|INTERRES
    85   42  106 1    
    86   43   44 2    
    87   43   45 1    
    88   45   46 1    
    89   45   49 1    
    90   45  107 1    
    91   46   47 1    
    92   46  108 1    
    93   46  109 1    
    94   47   48 1    
    95   48  110 1    
    96   48  111 1    
    97   49   50 am   BACKBONE|DICT|INTERRES
    98   49  112 1    
    99   50   51 2    
   100   50   52 1    
   101   52   53 1    
   102   52   54 1    
   103   52  113 1    
   104   53  114 1    
   105   53  115 1    
   106   53  116 1    
   107   54   55 am   BACKBONE|DICT|INTERRES
   108   54  117 1    
   109   55   56 2    
   110   55   57 1    
   111   57   58 1    
   112   57   59 1    
   113   57  118 1    
   114   58  119 1    
   115   58  120 1    
   116   58  121 1    
   117   59   60 am   BACKBONE|DICT|INTERRES
   118   59  122 1    
   119   60   61 2    
   120   60   62 1    
   121   62   63 1    
   122   62   64 1    
   123   62  123 1    
   124   63  124 1    
   125   63  125 1    
   126   63  126 1    
   127   64   65 am   BACKBONE|DICT|INTERRES
   128   64  127 1    
   129   65   66 2    
@<TRIPOS>SUBSTRUCTURE
     1 UNK         1 GROUP             0       ****    0 ROOT    
