@<TRIPOS>MOLECULE
3R135
127   129    1
SMALL
USER_CHARGES


@<TRIPOS>ATOM
      1 CA        -77.8734   24.8605  -68.2221 C.3       0 UNK        -0.1998 
      2 C         -79.0383   25.1968  -69.1411 C.2       0 UNK         0.4909 
      3 O         -80.1457   24.6993  -68.9301 O.2       0 UNK        -0.5240 
      4 N         -78.8016   26.0455  -70.1484 N.am      1 UNK        -0.4739 
      5 CA        -79.7895   26.4356  -71.1620 C.3       1 UNK         0.0864 
      6 C6        -79.3447   27.7083  -71.9229 C.3       11 UNK        -0.0881 
      7 S7        -79.4401   29.1726  -70.8397 S.3       11 UNK        -0.2682 
      8 C8        -79.9180   30.4759  -72.0220 C.3       11 UNK         0.0289 
      9 C9        -78.8100   30.7546  -73.0273 C.ar      11 UNK        -0.0687 
     10 C10       -79.0300   30.5947  -74.3991 C.ar      11 UNK        -0.0823 
     11 C11       -77.9926   30.8114  -75.3171 C.ar      11 UNK        -0.0830 
     12 C12       -76.7358   31.2032  -74.8443 C.ar      11 UNK        -0.1021 
     13 C13       -76.5099   31.3743  -73.4770 C.ar      11 UNK        -0.0753 
     14 C14       -77.5539   31.1644  -72.5761 C.ar      11 UNK        -0.0933 
     15 C15       -75.1298   31.7488  -72.9632 C.3       11 UNK         0.0166 
     16 S16       -74.0083   30.3168  -72.9673 S.3       11 UNK        -0.2615 
     17 C17       -74.9426   29.1004  -71.9705 C.3       11 UNK        -0.0865 
     18 CA        -74.0781   27.8787  -71.5659 C.3       10 UNK         0.0862 
     19 C         -74.8222   26.8830  -70.6351 C.2       10 UNK         0.5551 
     20 N         -74.1306   25.8724  -70.1272 N.am      10 UNK        -0.7319 
     21 O         -76.0198   27.0059  -70.3861 O.2       10 UNK        -0.5018 
     22 N         -73.5227   27.2158  -72.7524 N.am      10 UNK        -0.4509 
     23 C         -72.3478   26.5812  -72.8293 C.2       10 UNK         0.4899 
     24 O         -71.6232   26.3574  -71.8589 O.2       10 UNK        -0.4839 
     25 CA        -71.8901   26.1456  -74.2352 C.3       9 UNK         0.0222 
     26 CB        -72.2287   24.6689  -74.4886 C.3       9 UNK        -0.1966 
     27 N         -72.4840   26.9723  -75.2920 N.am      9 UNK        -0.4218 
     28 C         -72.1298   28.2391  -75.5502 C.2       9 UNK         0.5020 
     29 O         -71.1629   28.7978  -75.0265 O.2       9 UNK        -0.5274 
     30 CA        -73.0149   28.9980  -76.5609 C.3       8 UNK         0.0270 
     31 CB        -72.5708   30.4598  -76.7756 C.3       8 UNK        -0.1976 
     32 N         -73.1416   28.3079  -77.8505 N.am      8 UNK        -0.4313 
     33 C         -72.1509   27.8777  -78.6512 C.2       8 UNK         0.5041 
     34 O         -70.9543   28.0464  -78.4107 O.2       8 UNK        -0.5577 
     35 CA        -72.5468   27.1615  -79.9622 C.3       7 UNK         0.0284 
     36 CB        -71.6112   25.9756  -80.2839 C.3       7 UNK        -0.1958 
     37 N         -73.9563   26.7516  -80.0327 N.am      7 UNK        -0.4454 
     38 C         -74.5854   25.8611  -79.2539 C.2       7 UNK         0.5089 
     39 O         -74.0449   25.2044  -78.3621 O.2       7 UNK        -0.5125 
     40 CA        -76.1013   25.7375  -79.4771 C.3       6 UNK         0.0408 
     41 CB        -76.4810   24.3150  -79.9171 C.3       6 UNK        -0.1791 
     42 N         -76.8394   26.1013  -78.2656 N.am      6 UNK        -0.4762 
     43 C         -76.8130   27.3166  -77.6913 C.2       6 UNK         0.5007 
     44 O         -76.1655   28.2610  -78.1464 O.2       6 UNK        -0.5032 
     45 CA        -77.5857   27.4905  -76.3634 C.3       5 UNK         0.0783 
     46 C46       -79.0733   27.8621  -76.5933 C.3       11 UNK        -0.0857 
     47 S47       -79.4828   29.4790  -77.3499 S.3       11 UNK        -0.2512 
     48 C48       -78.1823   30.6529  -76.8249 C.3       11 UNK         0.0225 
     49 N         -77.4911   26.2792  -75.5436 N.am      5 UNK        -0.4615 
     50 C         -76.3562   25.8204  -74.9969 C.2       4 UNK         0.5053 
     51 O         -75.3099   26.4693  -74.9794 O.2       4 UNK        -0.5105 
     52 CA        -76.3674   24.4041  -74.3885 C.3       4 UNK         0.0263 
     53 CB        -76.0938   24.4474  -72.8791 C.3       4 UNK        -0.1981 
     54 N         -77.6064   23.6617  -74.6407 N.am      4 UNK        -0.4224 
     55 C         -77.9241   23.1114  -75.8235 C.2       3 UNK         0.4895 
     56 O         -77.1933   23.1663  -76.8109 O.2       3 UNK        -0.5091 
     57 CA        -79.2904   22.4135  -75.9589 C.3       3 UNK         0.0250 
     58 CB        -79.1285   20.8908  -75.8259 C.3       3 UNK        -0.1996 
     59 N         -80.3054   22.8735  -75.0085 N.am      3 UNK        -0.4254 
     60 C         -80.7659   24.1279  -74.9102 C.2       2 UNK         0.5004 
     61 O         -80.3795   25.0540  -75.6249 O.2       2 UNK        -0.5226 
     62 CA        -81.7848   24.4206  -73.7915 C.3       2 UNK         0.0269 
     63 CB        -82.3147   23.1606  -73.0683 C.3       2 UNK        -0.1926 
     64 N         -81.2527   25.3755  -72.8105 N.am      2 UNK        -0.4687 
     65 C         -80.0949   25.2793  -72.1371 C.2       1 UNK         0.5165 
     66 O         -79.2936   24.3505  -72.2783 O.2       1 UNK        -0.5079 
     67 H67       -77.0156   25.5078  -68.4002 H         1 UNK         0.0900 
     68 H68       -78.1700   24.9761  -67.1800 H         1 UNK         0.0900 
     69 H69       -77.5608   23.8283  -68.3766 H         1 UNK         0.0900 
     70 H70       -77.8650   26.4216  -70.2737 H         1 UNK         0.2959 
     71 H71       -80.7242   26.6551  -70.6402 H         1 UNK         0.1079 
     72 H72       -78.3251   27.6056  -72.3006 H         1 UNK         0.0837 
     73 H73       -79.9754   27.8863  -72.7961 H         1 UNK         0.0837 
     74 H74       -80.8450   30.1907  -72.5219 H         1 UNK         0.0685 
     75 H75       -80.1335   31.3917  -71.4700 H         1 UNK         0.0685 
     76 H76       -80.0087   30.2956  -74.7467 H         1 UNK         0.1434 
     77 H77       -75.9224   31.3651  -75.5391 H         1 UNK         0.1329 
     78 H78       -77.3820   31.2851  -71.5151 H         1 UNK         0.1335 
     79 H79       -74.7052   32.5358  -73.5881 H         1 UNK         0.0680 
     80 H80       -75.1891   32.1560  -71.9526 H         1 UNK         0.0680 
     81 H81       -75.3279   29.6017  -71.0806 H         1 UNK         0.1032 
     82 H82       -75.8140   28.7724  -72.5410 H         1 UNK         0.1032 
     83 H83       -73.2477   28.2709  -70.9754 H         1 UNK         0.0461 
     84 H84       -73.1531   25.7700  -70.3646 H         1 UNK         0.3453 
     85 H85       -74.5832   25.2051  -69.5246 H         1 UNK         0.3453 
     86 H86       -74.0895   27.2654  -73.5918 H         1 UNK         0.2984 
     87 H87       -70.8047   26.2569  -74.2799 H         1 UNK         0.0554 
     88 H88       -71.7747   24.0287  -73.7311 H         1 UNK         0.0847 
     89 H89       -71.8576   24.3379  -75.4588 H         1 UNK         0.0847 
     90 H90       -73.3028   24.4914  -74.4641 H         1 UNK         0.0847 
     91 H91       -73.3291   26.6131  -75.7227 H         1 UNK         0.3141 
     92 H92       -74.0164   29.0226  -76.1271 H         1 UNK         0.0743 
     93 H93       -71.5698   30.5193  -77.2043 H         1 UNK         0.0784 
     94 H94       -73.2541   30.9876  -77.4409 H         1 UNK         0.0784 
     95 H95       -72.5548   31.0042  -75.8304 H         1 UNK         0.0784 
     96 H96       -74.0968   28.1309  -78.1462 H         1 UNK         0.3213 
     97 H97       -72.4139   27.9033  -80.7512 H         1 UNK         0.0855 
     98 H98       -71.6212   25.2248  -79.4933 H         1 UNK         0.0814 
     99 H99       -70.5792   26.3100  -80.3970 H         1 UNK         0.0814 
    100 H100      -71.8941   25.4867  -81.2160 H         1 UNK         0.0814 
    101 H101      -74.5148   27.2567  -80.7082 H         1 UNK         0.3105 
    102 H102      -76.4082   26.4259  -80.2674 H         1 UNK         0.0547 
    103 H103      -76.0082   24.0646  -80.8675 H         1 UNK         0.0837 
    104 H104      -76.1592   23.5674  -79.1915 H         1 UNK         0.0837 
    105 H105      -77.5575   24.2110  -80.0524 H         1 UNK         0.0837 
    106 H106      -77.3044   25.3447  -77.7814 H         1 UNK         0.3020 
    107 H107      -77.0970   28.2892  -75.8037 H         1 UNK         0.1245 
    108 H108      -79.5931   27.8390  -75.6340 H         1 UNK         0.0781 
    109 H109      -79.5585   27.0930  -77.1972 H         1 UNK         0.0781 
    110 H110      -78.4370   31.6324  -77.2315 H         1 UNK         0.0836 
    111 H111      -77.2406   30.3777  -77.2975 H         1 UNK         0.0836 
    112 H112      -78.3250   25.7043  -75.4984 H         1 UNK         0.3022 
    113 H113      -75.5518   23.8508  -74.8579 H         1 UNK         0.0747 
    114 H114      -76.1861   23.4613  -72.4240 H         1 UNK         0.0793 
    115 H115      -75.0802   24.7949  -72.6844 H         1 UNK         0.0793 
    116 H116      -76.7766   25.1218  -72.3622 H         1 UNK         0.0793 
    117 H117      -78.2756   23.6282  -73.8765 H         1 UNK         0.3047 
    118 H118      -79.6620   22.6317  -76.9624 H         1 UNK         0.0822 
    119 H119      -80.0677   20.3720  -76.0195 H         1 UNK         0.0807 
    120 H120      -78.7850   20.6069  -74.8303 H         1 UNK         0.0807 
    121 H121      -78.3985   20.5116  -76.5427 H         1 UNK         0.0807 
    122 H122      -80.6547   22.1885  -74.3541 H         1 UNK         0.2946 
    123 H123      -82.6322   24.9048  -74.2800 H         1 UNK         0.1144 
    124 H124      -83.0900   23.4245  -72.3489 H         1 UNK         0.0793 
    125 H125      -81.5305   22.6355  -72.5213 H         1 UNK         0.0793 
    126 H126      -82.7643   22.4578  -73.7713 H         1 UNK         0.0793 
    127 H127      -81.8268   26.1928  -72.6556 H         1 UNK         0.2896 
@<TRIPOS>BOND
     1    1    2 1    
     2    1   67 1    
     3    1   68 1    
     4    1   69 1    
     5    2    3 2    
     6    2    4 am   BACKBONE|DICT|INTERRES
     7    4    5 1    
     8    4   70 1    
     9    5    6 1    
    10    5   65 1    
    11    5   71 1    
    12    6    7 1    
    13    6   72 1    
    14    6   73 1    
    15    7    8 1    
    16    8    9 1    
    17    8   74 1    
    18    8   75 1    
    19    9   10 ar   
    20    9   14 ar   
    21   10   11 ar   
    22   10   76 1    
    23   11   12 ar   
    24   11   48 1    
    25   12   13 ar   
    26   12   77 1    
    27   13   14 ar   
    28   13   15 1    
    29   14   78 1    
    30   15   16 1    
    31   15   79 1    
    32   15   80 1    
    33   16   17 1    
    34   17   18 1    
    35   17   81 1    
    36   17   82 1    
    37   18   19 1    
    38   18   22 1    
    39   18   83 1    
    40   19   20 am   BACKBONE|DICT|INTERRES
    41   19   21 2    
    42   20   84 1    
    43   20   85 1    
    44   22   23 am   BACKBONE|DICT|INTERRES
    45   22   86 1    
    46   23   24 2    
    47   23   25 1    
    48   25   26 1    
    49   25   27 1    
    50   25   87 1    
    51   26   88 1    
    52   26   89 1    
    53   26   90 1    
    54   27   28 am   BACKBONE|DICT|INTERRES
    55   27   91 1    
    56   28   29 2    
    57   28   30 1    
    58   30   31 1    
    59   30   32 1    
    60   30   92 1    
    61   31   93 1    
    62   31   94 1    
    63   31   95 1    
    64   32   33 am   BACKBONE|DICT|INTERRES
    65   32   96 1    
    66   33   34 2    
    67   33   35 1    
    68   35   36 1    
    69   35   37 1    
    70   35   97 1    
    71   36   98 1    
    72   36   99 1    
    73   36  100 1    
    74   37   38 am   BACKBONE|DICT|INTERRES
    75   37  101 1    
    76   38   39 2    
    77   38   40 1    
    78   40   41 1    
    79   40   42 1    
    80   40  102 1    
    81   41  103 1    
    82   41  104 1    
    83   41  105 1    
    84   42   43 am   BACKBONE|DICT|INTERRES
    85   42  106 1    
    86   43   44 2    
    87   43   45 1    
    88   45   46 1    
    89   45   49 1    
    90   45  107 1    
    91   46   47 1    
    92   46  108 1    
    93   46  109 1    
    94   47   48 1    
    95   48  110 1    
    96   48  111 1    
    97   49   50 am   BACKBONE|DICT|INTERRES
    98   49  112 1    
    99   50   51 2    
   100   50   52 1    
   101   52   53 1    
   102   52   54 1    
   103   52  113 1    
   104   53  114 1    
   105   53  115 1    
   106   53  116 1    
   107   54   55 am   BACKBONE|DICT|INTERRES
   108   54  117 1    
   109   55   56 2    
   110   55   57 1    
   111   57   58 1    
   112   57   59 1    
   113   57  118 1    
   114   58  119 1    
   115   58  120 1    
   116   58  121 1    
   117   59   60 am   BACKBONE|DICT|INTERRES
   118   59  122 1    
   119   60   61 2    
   120   60   62 1    
   121   62   63 1    
   122   62   64 1    
   123   62  123 1    
   124   63  124 1    
   125   63  125 1    
   126   63  126 1    
   127   64   65 am   BACKBONE|DICT|INTERRES
   128   64  127 1    
   129   65   66 2    
@<TRIPOS>SUBSTRUCTURE
     1 UNK         1 GROUP             0       ****    0 ROOT    
