@<TRIPOS>MOLECULE
3R135
127   129    1
SMALL
USER_CHARGES


@<TRIPOS>ATOM
      1 CA        -79.8022   31.2006  -75.8549 C.3       0 UNK        -0.1998 
      2 C         -78.6015   30.4008  -75.3576 C.2       0 UNK         0.4909 
      3 O         -77.4801   30.7291  -75.7386 O.2       0 UNK        -0.5240 
      4 N         -78.7433   29.3777  -74.5014 N.am      1 UNK        -0.4739 
      5 CA        -79.9445   28.6950  -73.9987 C.3       1 UNK         0.0864 
      6 C6        -81.0457   29.6209  -73.4120 C.3       11 UNK        -0.0881 
      7 S7        -82.1551   28.7263  -72.2677 S.3       11 UNK        -0.2682 
      8 C8        -81.5456   29.2588  -70.6370 C.3       11 UNK         0.0289 
      9 C9        -80.0843   28.8908  -70.4311 C.ar      11 UNK        -0.0687 
     10 C10       -79.7121   27.5590  -70.2251 C.ar      11 UNK        -0.0823 
     11 C11       -78.3663   27.2140  -70.0629 C.ar      11 UNK        -0.0830 
     12 C12       -77.3962   28.2230  -70.0666 C.ar      11 UNK        -0.1021 
     13 C13       -77.7543   29.5514  -70.3100 C.ar      11 UNK        -0.0753 
     14 C14       -79.1006   29.8813  -70.4784 C.ar      11 UNK        -0.0933 
     15 C15       -76.6889   30.6266  -70.4419 C.3       11 UNK         0.0166 
     16 S16       -75.9350   30.5801  -72.1002 S.3       11 UNK        -0.2615 
     17 C17       -74.5979   29.3591  -71.8649 C.3       11 UNK        -0.0865 
     18 CA        -73.3319   29.7459  -72.6754 C.3       10 UNK         0.0862 
     19 C         -72.0374   29.0902  -72.1024 C.2       10 UNK         0.5551 
     20 N         -71.1383   28.5397  -72.9084 N.am      10 UNK        -0.7319 
     21 O         -71.8301   29.0952  -70.8914 O.2       10 UNK        -0.5018 
     22 N         -73.5416   29.5168  -74.1144 N.am      10 UNK        -0.4509 
     23 C         -72.9629   30.2071  -75.1022 C.2       10 UNK         0.4899 
     24 O         -72.2574   31.2023  -74.9264 O.2       10 UNK        -0.4839 
     25 CA        -73.1743   29.6383  -76.5202 C.3       9 UNK         0.0222 
     26 CB        -72.4231   30.4321  -77.6091 C.3       9 UNK        -0.1966 
     27 N         -72.8369   28.2094  -76.5990 N.am      9 UNK        -0.4218 
     28 C         -71.6757   27.6267  -76.2562 C.2       9 UNK         0.5020 
     29 O         -70.6896   28.2506  -75.8630 O.2       9 UNK        -0.5274 
     30 CA        -71.5939   26.0895  -76.2980 C.3       8 UNK         0.0270 
     31 CB        -71.5104   25.5275  -74.8685 C.3       8 UNK        -0.1976 
     32 N         -72.7180   25.4583  -76.9914 N.am      8 UNK        -0.4313 
     33 C         -72.8457   25.3884  -78.3229 C.2       8 UNK         0.5041 
     34 O         -71.9991   25.8017  -79.1162 O.2       8 UNK        -0.5577 
     35 CA        -74.1557   24.7874  -78.8603 C.3       7 UNK         0.0284 
     36 CB        -74.1001   23.2518  -78.8387 C.3       7 UNK        -0.1958 
     37 N         -75.3427   25.2486  -78.1333 N.am      7 UNK        -0.4454 
     38 C         -75.7465   26.5258  -78.0568 C.2       7 UNK         0.5089 
     39 O         -75.1587   27.4682  -78.5856 O.2       7 UNK        -0.5125 
     40 CA        -76.9998   26.8011  -77.2155 C.3       6 UNK         0.0408 
     41 CB        -78.2631   26.4074  -77.9960 C.3       6 UNK        -0.1791 
     42 N         -76.9425   26.1017  -75.9296 N.am      6 UNK        -0.4762 
     43 C         -76.1305   26.4608  -74.9234 C.2       6 UNK         0.5007 
     44 O         -75.4346   27.4765  -74.9344 O.2       6 UNK        -0.5032 
     45 CA        -76.0452   25.5205  -73.7074 C.3       5 UNK         0.0783 
     46 C46       -77.0288   25.9578  -72.5988 C.3       11 UNK        -0.0857 
     47 S47       -76.5681   25.2507  -70.9819 S.3       11 UNK        -0.2512 
     48 C48       -77.9722   25.7461  -69.9193 C.3       11 UNK         0.0225 
     49 N         -76.2150   24.1144  -74.0856 N.am      5 UNK        -0.4615 
     50 C         -75.3049   23.4152  -74.7777 C.2       4 UNK         0.5053 
     51 O         -74.2376   23.8869  -75.1655 O.2       4 UNK        -0.5105 
     52 CA        -75.6532   21.9624  -75.1414 C.3       4 UNK         0.0263 
     53 CB        -75.2523   21.0138  -74.0011 C.3       4 UNK        -0.1981 
     54 N         -77.0658   21.7633  -75.4710 N.am      4 UNK        -0.4224 
     55 C         -77.7206   22.3812  -76.4638 C.2       3 UNK         0.4895 
     56 O         -77.1915   23.1881  -77.2307 O.2       3 UNK        -0.5091 
     57 CA        -79.2267   22.0852  -76.6122 C.3       3 UNK         0.0250 
     58 CB        -79.7523   20.9784  -75.6685 C.3       3 UNK        -0.1996 
     59 N         -80.0434   23.2973  -76.4669 N.am      3 UNK        -0.4254 
     60 C         -80.0273   24.1574  -75.4381 C.2       2 UNK         0.5004 
     61 O         -79.2821   24.0575  -74.4591 O.2       2 UNK        -0.5226 
     62 CA        -81.0248   25.3184  -75.5094 C.3       2 UNK         0.0269 
     63 CB        -82.4065   24.8775  -74.9977 C.3       2 UNK        -0.1926 
     64 N         -80.5390   26.4162  -74.6760 N.am      2 UNK        -0.4687 
     65 C         -80.5025   27.7028  -75.0383 C.2       1 UNK         0.5165 
     66 O         -80.9038   28.1118  -76.1286 O.2       1 UNK        -0.5079 
     67 H67       -80.5850   30.5661  -76.2617 H         1 UNK         0.0900 
     68 H68       -79.4972   31.8801  -76.6505 H         1 UNK         0.0900 
     69 H69       -80.2165   31.8072  -75.0508 H         1 UNK         0.0900 
     70 H70       -77.8811   28.9425  -74.2054 H         1 UNK         0.2959 
     71 H71       -79.5583   28.1040  -73.1669 H         1 UNK         0.1079 
     72 H72       -80.5947   30.4629  -72.8861 H         1 UNK         0.0837 
     73 H73       -81.6650   30.0545  -74.1980 H         1 UNK         0.0837 
     74 H74       -81.6960   30.3344  -70.5310 H         1 UNK         0.0685 
     75 H75       -82.1504   28.7873  -69.8611 H         1 UNK         0.0685 
     76 H76       -80.4738   26.7910  -70.2164 H         1 UNK         0.1434 
     77 H77       -76.3543   27.9649  -69.9394 H         1 UNK         0.1329 
     78 H78       -79.3804   30.9085  -70.6682 H         1 UNK         0.1335 
     79 H79       -75.9330   30.5152  -69.6635 H         1 UNK         0.0680 
     80 H80       -77.1306   31.6128  -70.2914 H         1 UNK         0.0680 
     81 H81       -74.9544   28.3682  -72.1493 H         1 UNK         0.1032 
     82 H82       -74.3734   29.3012  -70.7990 H         1 UNK         0.1032 
     83 H83       -73.1715   30.8157  -72.5286 H         1 UNK         0.0461 
     84 H84       -71.2336   28.5811  -73.9155 H         1 UNK         0.3453 
     85 H85       -70.3093   28.1355  -72.5038 H         1 UNK         0.3453 
     86 H86       -74.1347   28.7293  -74.3641 H         1 UNK         0.2984 
     87 H87       -74.2428   29.7144  -76.7291 H         1 UNK         0.0554 
     88 H88       -72.6257   30.0291  -78.6014 H         1 UNK         0.0847 
     89 H89       -72.7337   31.4775  -77.6139 H         1 UNK         0.0847 
     90 H90       -71.3439   30.4135  -77.4532 H         1 UNK         0.0847 
     91 H91       -73.5903   27.6102  -76.9108 H         1 UNK         0.3141 
     92 H92       -70.6716   25.8262  -76.8202 H         1 UNK         0.0743 
     93 H93       -72.3882   25.7951  -74.2786 H         1 UNK         0.0784 
     94 H94       -71.4283   24.4404  -74.8727 H         1 UNK         0.0784 
     95 H95       -70.6353   25.9144  -74.3449 H         1 UNK         0.0784 
     96 H96       -73.4232   25.0161  -76.4035 H         1 UNK         0.3213 
     97 H97       -74.2645   25.1093  -79.8982 H         1 UNK         0.0855 
     98 H98       -73.2571   22.8845  -79.4254 H         1 UNK         0.0814 
     99 H99       -75.0052   22.8148  -79.2612 H         1 UNK         0.0814 
    100 H100      -73.9838   22.8668  -77.8258 H         1 UNK         0.0814 
    101 H101      -75.9200   24.5326  -77.6976 H         1 UNK         0.3105 
    102 H102      -77.0476   27.8753  -77.0217 H         1 UNK         0.0547 
    103 H103      -78.2951   26.9150  -78.9610 H         1 UNK         0.0837 
    104 H104      -78.3133   25.3370  -78.1931 H         1 UNK         0.0837 
    105 H105      -79.1638   26.6935  -77.4608 H         1 UNK         0.0837 
    106 H106      -77.4430   25.2260  -75.8542 H         1 UNK         0.3020 
    107 H107      -75.0300   25.6348  -73.3186 H         1 UNK         0.1245 
    108 H108      -78.0530   25.6735  -72.8400 H         1 UNK         0.0781 
    109 H109      -77.0288   27.0442  -72.4992 H         1 UNK         0.0781 
    110 H110      -77.7141   25.5491  -68.8782 H         1 UNK         0.0836 
    111 H111      -78.8183   25.0986  -70.1546 H         1 UNK         0.0836 
    112 H112      -77.1027   23.6871  -73.8526 H         1 UNK         0.3022 
    113 H113      -75.0709   21.6959  -76.0251 H         1 UNK         0.0747 
    114 H114      -75.4064   19.9709  -74.2785 H         1 UNK         0.0793 
    115 H115      -74.1960   21.1281  -73.7529 H         1 UNK         0.0793 
    116 H116      -75.8232   21.2091  -73.0922 H         1 UNK         0.0793 
    117 H117      -77.5871   21.1350  -74.8771 H         1 UNK         0.3047 
    118 H118      -79.3626   21.7381  -77.6376 H         1 UNK         0.0822 
    119 H119      -80.8024   20.7652  -75.8692 H         1 UNK         0.0807 
    120 H120      -79.6742   21.2591  -74.6172 H         1 UNK         0.0807 
    121 H121      -79.2099   20.0425  -75.8101 H         1 UNK         0.0807 
    122 H122      -80.6755   23.4813  -77.2337 H         1 UNK         0.2946 
    123 H123      -81.1130   25.6349  -76.5511 H         1 UNK         0.1144 
    124 H124      -82.8090   24.0621  -75.6002 H         1 UNK         0.0793 
    125 H125      -83.1237   25.6975  -75.0426 H         1 UNK         0.0793 
    126 H126      -82.3617   24.5299  -73.9646 H         1 UNK         0.0793 
    127 H127      -80.1522   26.1262  -73.7881 H         1 UNK         0.2896 
@<TRIPOS>BOND
     1    1    2 1    
     2    1   67 1    
     3    1   68 1    
     4    1   69 1    
     5    2    3 2    
     6    2    4 am   BACKBONE|DICT|INTERRES
     7    4    5 1    
     8    4   70 1    
     9    5    6 1    
    10    5   65 1    
    11    5   71 1    
    12    6    7 1    
    13    6   72 1    
    14    6   73 1    
    15    7    8 1    
    16    8    9 1    
    17    8   74 1    
    18    8   75 1    
    19    9   10 ar   
    20    9   14 ar   
    21   10   11 ar   
    22   10   76 1    
    23   11   12 ar   
    24   11   48 1    
    25   12   13 ar   
    26   12   77 1    
    27   13   14 ar   
    28   13   15 1    
    29   14   78 1    
    30   15   16 1    
    31   15   79 1    
    32   15   80 1    
    33   16   17 1    
    34   17   18 1    
    35   17   81 1    
    36   17   82 1    
    37   18   19 1    
    38   18   22 1    
    39   18   83 1    
    40   19   20 am   BACKBONE|DICT|INTERRES
    41   19   21 2    
    42   20   84 1    
    43   20   85 1    
    44   22   23 am   BACKBONE|DICT|INTERRES
    45   22   86 1    
    46   23   24 2    
    47   23   25 1    
    48   25   26 1    
    49   25   27 1    
    50   25   87 1    
    51   26   88 1    
    52   26   89 1    
    53   26   90 1    
    54   27   28 am   BACKBONE|DICT|INTERRES
    55   27   91 1    
    56   28   29 2    
    57   28   30 1    
    58   30   31 1    
    59   30   32 1    
    60   30   92 1    
    61   31   93 1    
    62   31   94 1    
    63   31   95 1    
    64   32   33 am   BACKBONE|DICT|INTERRES
    65   32   96 1    
    66   33   34 2    
    67   33   35 1    
    68   35   36 1    
    69   35   37 1    
    70   35   97 1    
    71   36   98 1    
    72   36   99 1    
    73   36  100 1    
    74   37   38 am   BACKBONE|DICT|INTERRES
    75   37  101 1    
    76   38   39 2    
    77   38   40 1    
    78   40   41 1    
    79   40   42 1    
    80   40  102 1    
    81   41  103 1    
    82   41  104 1    
    83   41  105 1    
    84   42   43 am   BACKBONE|DICT|INTERRES
    85   42  106 1    
    86   43   44 2    
    87   43   45 1    
    88   45   46 1    
    89   45   49 1    
    90   45  107 1    
    91   46   47 1    
    92   46  108 1    
    93   46  109 1    
    94   47   48 1    
    95   48  110 1    
    96   48  111 1    
    97   49   50 am   BACKBONE|DICT|INTERRES
    98   49  112 1    
    99   50   51 2    
   100   50   52 1    
   101   52   53 1    
   102   52   54 1    
   103   52  113 1    
   104   53  114 1    
   105   53  115 1    
   106   53  116 1    
   107   54   55 am   BACKBONE|DICT|INTERRES
   108   54  117 1    
   109   55   56 2    
   110   55   57 1    
   111   57   58 1    
   112   57   59 1    
   113   57  118 1    
   114   58  119 1    
   115   58  120 1    
   116   58  121 1    
   117   59   60 am   BACKBONE|DICT|INTERRES
   118   59  122 1    
   119   60   61 2    
   120   60   62 1    
   121   62   63 1    
   122   62   64 1    
   123   62  123 1    
   124   63  124 1    
   125   63  125 1    
   126   63  126 1    
   127   64   65 am   BACKBONE|DICT|INTERRES
   128   64  127 1    
   129   65   66 2    
@<TRIPOS>SUBSTRUCTURE
     1 UNK         1 GROUP             0       ****    0 ROOT    
