@<TRIPOS>MOLECULE
3R135
127   129    1
SMALL
USER_CHARGES


@<TRIPOS>ATOM
      1 CA        -79.8399   28.3489  -70.4054 C.3       0 UNK        -0.1998 
      2 C         -80.8926   28.0130  -71.4508 C.2       0 UNK         0.4909 
      3 O         -82.0086   27.6305  -71.0986 O.2       0 UNK        -0.5240 
      4 N         -80.5444   28.1613  -72.7352 N.am      1 UNK        -0.4739 
      5 CA        -81.4294   27.9407  -73.8885 C.3       1 UNK         0.0864 
      6 C6        -80.8100   28.4645  -75.2080 C.3       11 UNK        -0.0881 
      7 S7        -80.2849   30.2097  -75.1307 S.3       11 UNK        -0.2682 
      8 C8        -78.4959   30.0629  -75.4302 C.3       11 UNK         0.0289 
      9 C9        -77.7178   29.8007  -74.1487 C.ar      11 UNK        -0.0687 
     10 C10       -77.4923   28.4959  -73.6953 C.ar      11 UNK        -0.0823 
     11 C11       -76.7435   28.2683  -72.5350 C.ar      11 UNK        -0.0830 
     12 C12       -76.2208   29.3567  -71.8294 C.ar      11 UNK        -0.1021 
     13 C13       -76.4373   30.6633  -72.2743 C.ar      11 UNK        -0.0753 
     14 C14       -77.1899   30.8778  -73.4318 C.ar      11 UNK        -0.0933 
     15 C15       -75.8692   31.8467  -71.5007 C.3       11 UNK         0.0166 
     16 S16       -74.0467   31.8825  -71.4967 S.3       11 UNK        -0.2615 
     17 C17       -73.6603   32.0765  -73.2727 C.3       11 UNK        -0.0865 
     18 CA        -72.2468   31.5900  -73.7124 C.3       10 UNK         0.0862 
     19 C         -71.0716   32.5318  -73.3049 C.2       10 UNK         0.5551 
     20 N         -69.8365   32.0493  -73.2486 N.am      10 UNK        -0.7319 
     21 O         -71.2672   33.7253  -73.0861 O.2       10 UNK        -0.5018 
     22 N         -72.0502   30.1377  -73.5329 N.am      10 UNK        -0.4509 
     23 C         -71.6498   29.4791  -72.4315 C.2       10 UNK         0.4899 
     24 O         -71.2877   30.0274  -71.3907 O.2       10 UNK        -0.4839 
     25 CA        -71.6586   27.9369  -72.4697 C.3       9 UNK         0.0222 
     26 CB        -72.6383   27.3844  -71.4211 C.3       9 UNK        -0.1966 
     27 N         -72.0074   27.3846  -73.7808 N.am      9 UNK        -0.4218 
     28 C         -71.1578   27.2581  -74.8097 C.2       9 UNK         0.5020 
     29 O         -69.9560   27.5186  -74.7421 O.2       9 UNK        -0.5274 
     30 CA        -71.7546   26.7955  -76.1525 C.3       8 UNK         0.0270 
     31 CB        -71.5902   25.2763  -76.3132 C.3       8 UNK        -0.1976 
     32 N         -73.1647   27.1731  -76.3366 N.am      8 UNK        -0.4313 
     33 C         -73.5938   28.4447  -76.4073 C.2       8 UNK         0.5041 
     34 O         -72.8310   29.4074  -76.3146 O.2       8 UNK        -0.5577 
     35 CA        -75.1045   28.7192  -76.5358 C.3       7 UNK         0.0284 
     36 CB        -75.3979   29.9211  -77.4602 C.3       7 UNK        -0.1958 
     37 N         -75.9164   27.5489  -76.8922 N.am      7 UNK        -0.4454 
     38 C         -75.9553   26.8936  -78.0620 C.2       7 UNK         0.5089 
     39 O         -75.3171   27.2265  -79.0614 O.2       7 UNK        -0.5125 
     40 CA        -76.8481   25.6307  -78.0962 C.3       6 UNK         0.0408 
     41 CB        -76.4693   24.6731  -79.2446 C.3       6 UNK        -0.1791 
     42 N         -76.8904   24.8965  -76.8208 N.am      6 UNK        -0.4762 
     43 C         -75.8317   24.4453  -76.1267 C.2       6 UNK         0.5007 
     44 O         -74.6633   24.6182  -76.4701 O.2       6 UNK        -0.5032 
     45 CA        -76.1297   23.6981  -74.8183 C.3       5 UNK         0.0783 
     46 C46       -76.6771   24.6416  -73.7205 C.3       11 UNK        -0.0857 
     47 S47       -75.4688   25.8843  -73.1584 S.3       11 UNK        -0.2512 
     48 C48       -76.5127   26.8536  -72.0241 C.3       11 UNK         0.0225 
     49 N         -77.0508   22.5952  -75.0860 N.am      5 UNK        -0.4615 
     50 C         -76.6794   21.3818  -75.5176 C.2       4 UNK         0.5053 
     51 O         -75.5062   21.0392  -75.6643 O.2       4 UNK        -0.5105 
     52 CA        -77.7966   20.3671  -75.8268 C.3       4 UNK         0.0263 
     53 CB        -77.9733   19.3926  -74.6509 C.3       4 UNK        -0.1981 
     54 N         -79.0838   21.0014  -76.1187 N.am      4 UNK        -0.4224 
     55 C         -79.3772   21.6462  -77.2571 C.2       3 UNK         0.4895 
     56 O         -78.6286   21.6916  -78.2328 O.2       3 UNK        -0.5091 
     57 CA        -80.7235   22.3925  -77.3021 C.3       3 UNK         0.0250 
     58 CB        -81.8089   21.5079  -77.9364 C.3       3 UNK        -0.1996 
     59 N         -81.1814   22.8610  -75.9869 N.am      3 UNK        -0.4254 
     60 C         -80.5459   23.7803  -75.2482 C.2       2 UNK         0.5004 
     61 O         -79.4885   24.3201  -75.5880 O.2       2 UNK        -0.5226 
     62 CA        -81.1452   24.0996  -73.8707 C.3       2 UNK         0.0269 
     63 CB        -80.4196   23.3030  -72.7742 C.3       2 UNK        -0.1926 
     64 N         -81.0186   25.5283  -73.5887 N.am      2 UNK        -0.4687 
     65 C         -81.8375   26.4651  -74.0858 C.2       1 UNK         0.5165 
     66 O         -82.8652   26.2035  -74.7135 O.2       1 UNK        -0.5079 
     67 H67       -79.0359   28.9549  -70.8224 H         1 UNK         0.0900 
     68 H68       -79.4077   27.4355  -69.9982 H         1 UNK         0.0900 
     69 H69       -80.2880   28.9098  -69.5857 H         1 UNK         0.0900 
     70 H70       -79.6312   28.5338  -72.9575 H         1 UNK         0.2959 
     71 H71       -82.3496   28.4986  -73.7006 H         1 UNK         0.1079 
     72 H72       -79.9689   27.8377  -75.5099 H         1 UNK         0.0837 
     73 H73       -81.5374   28.3864  -76.0188 H         1 UNK         0.0837 
     74 H74       -78.2983   29.2832  -76.1666 H         1 UNK         0.0685 
     75 H75       -78.1491   30.9924  -75.8846 H         1 UNK         0.0685 
     76 H76       -77.8908   27.6562  -74.2468 H         1 UNK         0.1434 
     77 H77       -75.6414   29.1937  -70.9308 H         1 UNK         0.1329 
     78 H78       -77.3609   31.8869  -73.7814 H         1 UNK         0.1335 
     79 H79       -76.2394   32.7906  -71.9038 H         1 UNK         0.0680 
     80 H80       -76.2208   31.7961  -70.4694 H         1 UNK         0.0680 
     81 H81       -73.8080   33.1230  -73.5447 H         1 UNK         0.1032 
     82 H82       -74.4008   31.5259  -73.8530 H         1 UNK         0.1032 
     83 H83       -72.2480   31.6972  -74.7977 H         1 UNK         0.0461 
     84 H84       -69.0752   32.6609  -73.0002 H         1 UNK         0.3453 
     85 H85       -69.6670   31.0714  -73.4219 H         1 UNK         0.3453 
     86 H86       -72.2676   29.5953  -74.3615 H         1 UNK         0.2984 
     87 H87       -70.6553   27.5980  -72.2034 H         1 UNK         0.0554 
     88 H88       -72.6684   26.2948  -71.4333 H         1 UNK         0.0847 
     89 H89       -73.6499   27.7534  -71.5882 H         1 UNK         0.0847 
     90 H90       -72.3469   27.6882  -70.4148 H         1 UNK         0.0847 
     91 H91       -72.9759   27.1357  -73.9260 H         1 UNK         0.3141 
     92 H92       -71.1821   27.2814  -76.9454 H         1 UNK         0.0743 
     93 H93       -72.1273   24.7284  -75.5379 H         1 UNK         0.0784 
     94 H94       -71.9584   24.9364  -77.2814 H         1 UNK         0.0784 
     95 H95       -70.5401   24.9882  -76.2468 H         1 UNK         0.0784 
     96 H96       -73.8302   26.4095  -76.4271 H         1 UNK         0.3213 
     97 H97       -75.4192   29.0027  -75.5321 H         1 UNK         0.0855 
     98 H98       -74.9782   30.8397  -77.0482 H         1 UNK         0.0814 
     99 H99       -76.4669   30.0837  -77.5878 H         1 UNK         0.0814 
    100 H100      -74.9617   29.7852  -78.4502 H         1 UNK         0.0814 
    101 H101      -76.4566   27.1507  -76.1383 H         1 UNK         0.3105 
    102 H102      -77.8645   25.9819  -78.2791 H         1 UNK         0.0547 
    103 H103      -76.5547   25.1665  -80.2134 H         1 UNK         0.0837 
    104 H104      -75.4433   24.3161  -79.1495 H         1 UNK         0.0837 
    105 H105      -77.1255   23.8033  -79.2676 H         1 UNK         0.0837 
    106 H106      -77.8201   24.7143  -76.4467 H         1 UNK         0.3020 
    107 H107      -75.1848   23.2833  -74.4579 H         1 UNK         0.1245 
    108 H108      -76.9617   24.0515  -72.8481 H         1 UNK         0.0781 
    109 H109      -77.5825   25.1518  -74.0505 H         1 UNK         0.0781 
    110 H110      -76.0293   26.8715  -71.0462 H         1 UNK         0.0836 
    111 H111      -77.4757   26.3654  -71.8689 H         1 UNK         0.0836 
    112 H112      -78.0351   22.8244  -75.0626 H         1 UNK         0.3022 
    113 H113      -77.4871   19.7939  -76.7036 H         1 UNK         0.0747 
    114 H114      -78.7143   18.6258  -74.8782 H         1 UNK         0.0793 
    115 H115      -77.0374   18.8787  -74.4263 H         1 UNK         0.0793 
    116 H116      -78.2882   19.9070  -73.7419 H         1 UNK         0.0793 
    117 H117      -79.7749   20.9918  -75.3831 H         1 UNK         0.3047 
    118 H118      -80.5839   23.2708  -77.9364 H         1 UNK         0.0822 
    119 H119      -82.7446   22.0537  -78.0593 H         1 UNK         0.0807 
    120 H120      -82.0124   20.6213  -77.3345 H         1 UNK         0.0807 
    121 H121      -81.5039   21.1662  -78.9267 H         1 UNK         0.0807 
    122 H122      -82.0392   22.4570  -75.6376 H         1 UNK         0.2946 
    123 H123      -82.2027   23.8244  -73.8630 H         1 UNK         0.1144 
    124 H124      -80.5139   22.2292  -72.9407 H         1 UNK         0.0793 
    125 H125      -80.8402   23.5136  -71.7906 H         1 UNK         0.0793 
    126 H126      -79.3554   23.5355  -72.7376 H         1 UNK         0.0793 
    127 H127      -80.1866   25.8299  -73.1052 H         1 UNK         0.2896 
@<TRIPOS>BOND
     1    1    2 1    
     2    1   67 1    
     3    1   68 1    
     4    1   69 1    
     5    2    3 2    
     6    2    4 am   BACKBONE|DICT|INTERRES
     7    4    5 1    
     8    4   70 1    
     9    5    6 1    
    10    5   65 1    
    11    5   71 1    
    12    6    7 1    
    13    6   72 1    
    14    6   73 1    
    15    7    8 1    
    16    8    9 1    
    17    8   74 1    
    18    8   75 1    
    19    9   10 ar   
    20    9   14 ar   
    21   10   11 ar   
    22   10   76 1    
    23   11   12 ar   
    24   11   48 1    
    25   12   13 ar   
    26   12   77 1    
    27   13   14 ar   
    28   13   15 1    
    29   14   78 1    
    30   15   16 1    
    31   15   79 1    
    32   15   80 1    
    33   16   17 1    
    34   17   18 1    
    35   17   81 1    
    36   17   82 1    
    37   18   19 1    
    38   18   22 1    
    39   18   83 1    
    40   19   20 am   BACKBONE|DICT|INTERRES
    41   19   21 2    
    42   20   84 1    
    43   20   85 1    
    44   22   23 am   BACKBONE|DICT|INTERRES
    45   22   86 1    
    46   23   24 2    
    47   23   25 1    
    48   25   26 1    
    49   25   27 1    
    50   25   87 1    
    51   26   88 1    
    52   26   89 1    
    53   26   90 1    
    54   27   28 am   BACKBONE|DICT|INTERRES
    55   27   91 1    
    56   28   29 2    
    57   28   30 1    
    58   30   31 1    
    59   30   32 1    
    60   30   92 1    
    61   31   93 1    
    62   31   94 1    
    63   31   95 1    
    64   32   33 am   BACKBONE|DICT|INTERRES
    65   32   96 1    
    66   33   34 2    
    67   33   35 1    
    68   35   36 1    
    69   35   37 1    
    70   35   97 1    
    71   36   98 1    
    72   36   99 1    
    73   36  100 1    
    74   37   38 am   BACKBONE|DICT|INTERRES
    75   37  101 1    
    76   38   39 2    
    77   38   40 1    
    78   40   41 1    
    79   40   42 1    
    80   40  102 1    
    81   41  103 1    
    82   41  104 1    
    83   41  105 1    
    84   42   43 am   BACKBONE|DICT|INTERRES
    85   42  106 1    
    86   43   44 2    
    87   43   45 1    
    88   45   46 1    
    89   45   49 1    
    90   45  107 1    
    91   46   47 1    
    92   46  108 1    
    93   46  109 1    
    94   47   48 1    
    95   48  110 1    
    96   48  111 1    
    97   49   50 am   BACKBONE|DICT|INTERRES
    98   49  112 1    
    99   50   51 2    
   100   50   52 1    
   101   52   53 1    
   102   52   54 1    
   103   52  113 1    
   104   53  114 1    
   105   53  115 1    
   106   53  116 1    
   107   54   55 am   BACKBONE|DICT|INTERRES
   108   54  117 1    
   109   55   56 2    
   110   55   57 1    
   111   57   58 1    
   112   57   59 1    
   113   57  118 1    
   114   58  119 1    
   115   58  120 1    
   116   58  121 1    
   117   59   60 am   BACKBONE|DICT|INTERRES
   118   59  122 1    
   119   60   61 2    
   120   60   62 1    
   121   62   63 1    
   122   62   64 1    
   123   62  123 1    
   124   63  124 1    
   125   63  125 1    
   126   63  126 1    
   127   64   65 am   BACKBONE|DICT|INTERRES
   128   64  127 1    
   129   65   66 2    
@<TRIPOS>SUBSTRUCTURE
     1 UNK         1 GROUP             0       ****    0 ROOT    
