@<TRIPOS>MOLECULE
3R135
127   129    1
SMALL
USER_CHARGES


@<TRIPOS>ATOM
      1 CA        -83.1081   27.0117  -76.2980 C.3       0 UNK        -0.1998 
      2 C         -81.7999   27.7692  -76.1343 C.2       0 UNK         0.4909 
      3 O         -81.0820   27.9674  -77.1152 O.2       0 UNK        -0.5240 
      4 N         -81.4770   28.1836  -74.9014 N.am      1 UNK        -0.4739 
      5 CA        -80.2357   28.8727  -74.5306 C.3       1 UNK         0.0864 
      6 C6        -80.2398   29.3456  -73.0504 C.3       11 UNK        -0.0881 
      7 S7        -80.7195   28.0600  -71.8422 S.3       11 UNK        -0.2682 
      8 C8        -80.0951   28.7636  -70.2816 C.3       11 UNK         0.0289 
      9 C9        -78.5960   28.5644  -70.0822 C.ar      11 UNK        -0.0687 
     10 C10       -78.0406   27.2811  -70.1233 C.ar      11 UNK        -0.0823 
     11 C11       -76.6782   27.0840  -69.8753 C.ar      11 UNK        -0.0830 
     12 C12       -75.8719   28.1838  -69.5623 C.ar      11 UNK        -0.1021 
     13 C13       -76.4107   29.4760  -69.5240 C.ar      11 UNK        -0.0753 
     14 C14       -77.7729   29.6572  -69.7896 C.ar      11 UNK        -0.0933 
     15 C15       -75.5462   30.6714  -69.1330 C.3       11 UNK         0.0166 
     16 S16       -74.0152   30.8267  -70.1126 S.3       11 UNK        -0.2615 
     17 C17       -74.6218   31.4313  -71.7251 C.3       11 UNK        -0.0865 
     18 CA        -74.6271   30.3046  -72.7991 C.3       10 UNK         0.0862 
     19 C         -76.0631   29.8735  -73.1826 C.2       10 UNK         0.5551 
     20 N         -76.4646   28.6721  -72.8073 N.am      10 UNK        -0.7319 
     21 O         -76.8112   30.6311  -73.7969 O.2       10 UNK        -0.5018 
     22 N         -73.8731   30.6772  -74.0043 N.am      10 UNK        -0.4509 
     23 C         -73.3418   29.7810  -74.8442 C.2       10 UNK         0.4899 
     24 O         -73.3524   28.5643  -74.6419 O.2       10 UNK        -0.4839 
     25 CA        -72.6797   30.3266  -76.1175 C.3       9 UNK         0.0222 
     26 CB        -71.5147   31.2845  -75.7979 C.3       9 UNK        -0.1966 
     27 N         -72.1875   29.1898  -76.8896 N.am      9 UNK        -0.4218 
     28 C         -71.9622   29.1457  -78.2062 C.2       9 UNK         0.5020 
     29 O         -72.1386   30.1040  -78.9602 O.2       9 UNK        -0.5274 
     30 CA        -71.4275   27.8206  -78.7881 C.3       8 UNK         0.0270 
     31 CB        -69.9602   27.9803  -79.2221 C.3       8 UNK        -0.1976 
     32 N         -71.5266   26.6824  -77.8646 N.am      8 UNK        -0.4313 
     33 C         -72.6539   26.0039  -77.6157 C.2       8 UNK         0.5041 
     34 O         -73.7284   26.2484  -78.1663 O.2       8 UNK        -0.5577 
     35 CA        -72.5542   24.8657  -76.5896 C.3       7 UNK         0.0284 
     36 CB        -72.2083   25.3806  -75.1796 C.3       7 UNK        -0.1958 
     37 N         -73.8207   24.1419  -76.5247 N.am      7 UNK        -0.4454 
     38 C         -73.9519   22.8312  -76.2989 C.2       7 UNK         0.5089 
     39 O         -73.0025   22.0591  -76.1487 O.2       7 UNK        -0.5125 
     40 CA        -75.3986   22.3178  -76.2016 C.3       6 UNK         0.0408 
     41 CB        -75.5012   20.7943  -75.9773 C.3       6 UNK        -0.1791 
     42 N         -76.1583   23.0608  -75.1917 N.am      6 UNK        -0.4762 
     43 C         -75.9612   23.1031  -73.8635 C.2       6 UNK         0.5007 
     44 O         -75.1081   22.4403  -73.2723 O.2       6 UNK        -0.5032 
     45 CA        -76.9035   24.0229  -73.0513 C.3       5 UNK         0.0783 
     46 C46       -76.2623   25.3962  -72.7371 C.3       11 UNK        -0.0857 
     47 S47       -75.0481   25.3748  -71.3772 S.3       11 UNK        -0.2512 
     48 C48       -76.0887   25.6786  -69.9089 C.3       11 UNK         0.0225 
     49 N         -78.1929   24.2244  -73.7178 N.am      5 UNK        -0.4615 
     50 C         -79.1407   23.2958  -73.8929 C.2       4 UNK         0.5053 
     51 O         -79.0799   22.1538  -73.4380 O.2       4 UNK        -0.5105 
     52 CA        -80.3456   23.7147  -74.7486 C.3       4 UNK         0.0263 
     53 CB        -81.3679   24.4974  -73.9084 C.3       4 UNK        -0.1981 
     54 N         -79.9259   24.5203  -75.8996 N.am      4 UNK        -0.4224 
     55 C         -79.4168   24.0105  -77.0312 C.2       3 UNK         0.4895 
     56 O         -79.3127   22.8037  -77.2498 O.2       3 UNK        -0.5091 
     57 CA        -78.9320   25.0036  -78.1025 C.3       3 UNK         0.0250 
     58 CB        -80.0493   25.2867  -79.1193 C.3       3 UNK        -0.1996 
     59 N         -78.4490   26.2669  -77.5394 N.am      3 UNK        -0.4254 
     60 C         -77.2741   26.4052  -76.9051 C.2       2 UNK         0.5004 
     61 O         -76.4699   25.4863  -76.7556 O.2       2 UNK        -0.5226 
     62 CA        -76.9711   27.7774  -76.2747 C.3       2 UNK         0.0269 
     63 CB        -76.2163   28.6861  -77.2567 C.3       2 UNK        -0.1926 
     64 N         -78.1665   28.4802  -75.7980 N.am      2 UNK        -0.4687 
     65 C         -79.0053   28.0081  -74.8676 C.2       1 UNK         0.5165 
     66 O         -78.8516   26.9187  -74.3131 O.2       1 UNK        -0.5079 
     67 H67       -83.6360   26.9004  -75.3511 H         1 UNK         0.0900 
     68 H68       -83.7618   27.5398  -76.9915 H         1 UNK         0.0900 
     69 H69       -82.9169   26.0171  -76.7001 H         1 UNK         0.0900 
     70 H70       -82.0843   27.9636  -74.1243 H         1 UNK         0.2959 
     71 H71       -80.1828   29.7711  -75.1496 H         1 UNK         0.1079 
     72 H72       -80.9452   30.1708  -72.9419 H         1 UNK         0.0837 
     73 H73       -79.2678   29.7582  -72.7739 H         1 UNK         0.0837 
     74 H74       -80.6166   28.2811  -69.4541 H         1 UNK         0.0685 
     75 H75       -80.3621   29.8206  -70.2352 H         1 UNK         0.0685 
     76 H76       -78.6763   26.4345  -70.3445 H         1 UNK         0.1434 
     77 H77       -74.8225   28.0337  -69.3480 H         1 UNK         0.1329 
     78 H78       -78.1999   30.6495  -69.7414 H         1 UNK         0.1335 
     79 H79       -75.2710   30.5621  -68.0833 H         1 UNK         0.0680 
     80 H80       -76.1087   31.6038  -69.2029 H         1 UNK         0.0680 
     81 H81       -75.6013   31.8982  -71.6001 H         1 UNK         0.1032 
     82 H82       -73.9592   32.2456  -72.0220 H         1 UNK         0.1032 
     83 H83       -74.1236   29.4318  -72.3758 H         1 UNK         0.0461 
     84 H84       -75.8668   28.0892  -72.2420 H         1 UNK         0.3453 
     85 H85       -77.3997   28.3676  -73.0194 H         1 UNK         0.3453 
     86 H86       -73.8703   31.6553  -74.2530 H         1 UNK         0.2984 
     87 H87       -73.4430   30.8509  -76.6959 H         1 UNK         0.0554 
     88 H88       -71.8583   32.1655  -75.2552 H         1 UNK         0.0847 
     89 H89       -71.0325   31.6412  -76.7082 H         1 UNK         0.0847 
     90 H90       -70.7528   30.7994  -75.1862 H         1 UNK         0.0847 
     91 H91       -72.1056   28.3383  -76.3480 H         1 UNK         0.3141 
     92 H92       -72.0208   27.5980  -79.6778 H         1 UNK         0.0743 
     93 H93       -69.8517   28.7920  -79.9429 H         1 UNK         0.0784 
     94 H94       -69.3105   28.2082  -78.3760 H         1 UNK         0.0784 
     95 H95       -69.5862   27.0748  -79.7004 H         1 UNK         0.0784 
     96 H96       -70.6777   26.4132  -77.3869 H         1 UNK         0.3213 
     97 H97       -71.7640   24.1943  -76.9329 H         1 UNK         0.0855 
     98 H98       -73.0133   25.9918  -74.7711 H         1 UNK         0.0814 
     99 H99       -71.2993   25.9824  -75.1739 H         1 UNK         0.0814 
    100 H100      -72.0475   24.5521  -74.4895 H         1 UNK         0.0814 
    101 H101      -74.6524   24.7040  -76.7041 H         1 UNK         0.3105 
    102 H102      -75.8715   22.5392  -77.1598 H         1 UNK         0.0547 
    103 H103      -76.5411   20.4713  -75.9291 H         1 UNK         0.0837 
    104 H104      -75.0089   20.4809  -75.0565 H         1 UNK         0.0837 
    105 H105      -75.0293   20.2501  -76.7961 H         1 UNK         0.0837 
    106 H106      -76.8284   23.7176  -75.5730 H         1 UNK         0.3020 
    107 H107      -77.1108   23.5119  -72.1085 H         1 UNK         0.1245 
    108 H108      -77.0454   26.1008  -72.4620 H         1 UNK         0.0781 
    109 H109      -75.7887   25.8187  -73.6259 H         1 UNK         0.0781 
    110 H110      -75.4818   25.5272  -69.0152 H         1 UNK         0.0836 
    111 H111      -76.8776   24.9261  -69.8669 H         1 UNK         0.0836 
    112 H112      -78.3748   25.1659  -74.0598 H         1 UNK         0.3022 
    113 H113      -80.8322   22.8061  -75.1104 H         1 UNK         0.0747 
    114 H114      -82.2592   24.7336  -74.4885 H         1 UNK         0.0793 
    115 H115      -81.6907   23.9129  -73.0459 H         1 UNK         0.0793 
    116 H116      -80.9547   25.4324  -73.5290 H         1 UNK         0.0793 
    117 H117      -79.9133   25.5231  -75.7717 H         1 UNK         0.3047 
    118 H118      -78.1036   24.5312  -78.6356 H         1 UNK         0.0822 
    119 H119      -79.7061   25.9519  -79.9117 H         1 UNK         0.0807 
    120 H120      -80.9199   25.7453  -78.6497 H         1 UNK         0.0807 
    121 H121      -80.3854   24.3641  -79.5946 H         1 UNK         0.0807 
    122 H122      -79.0805   27.0590  -77.5789 H         1 UNK         0.2946 
    123 H123      -76.3232   27.5975  -75.4141 H         1 UNK         0.1144 
    124 H124      -75.2840   28.2231  -77.5785 H         1 UNK         0.0793 
    125 H125      -75.9556   29.6380  -76.7938 H         1 UNK         0.0793 
    126 H126      -76.8046   28.8940  -78.1510 H         1 UNK         0.0793 
    127 H127      -78.3563   29.3792  -76.2171 H         1 UNK         0.2896 
@<TRIPOS>BOND
     1    1    2 1    
     2    1   67 1    
     3    1   68 1    
     4    1   69 1    
     5    2    3 2    
     6    2    4 am   BACKBONE|DICT|INTERRES
     7    4    5 1    
     8    4   70 1    
     9    5    6 1    
    10    5   65 1    
    11    5   71 1    
    12    6    7 1    
    13    6   72 1    
    14    6   73 1    
    15    7    8 1    
    16    8    9 1    
    17    8   74 1    
    18    8   75 1    
    19    9   10 ar   
    20    9   14 ar   
    21   10   11 ar   
    22   10   76 1    
    23   11   12 ar   
    24   11   48 1    
    25   12   13 ar   
    26   12   77 1    
    27   13   14 ar   
    28   13   15 1    
    29   14   78 1    
    30   15   16 1    
    31   15   79 1    
    32   15   80 1    
    33   16   17 1    
    34   17   18 1    
    35   17   81 1    
    36   17   82 1    
    37   18   19 1    
    38   18   22 1    
    39   18   83 1    
    40   19   20 am   BACKBONE|DICT|INTERRES
    41   19   21 2    
    42   20   84 1    
    43   20   85 1    
    44   22   23 am   BACKBONE|DICT|INTERRES
    45   22   86 1    
    46   23   24 2    
    47   23   25 1    
    48   25   26 1    
    49   25   27 1    
    50   25   87 1    
    51   26   88 1    
    52   26   89 1    
    53   26   90 1    
    54   27   28 am   BACKBONE|DICT|INTERRES
    55   27   91 1    
    56   28   29 2    
    57   28   30 1    
    58   30   31 1    
    59   30   32 1    
    60   30   92 1    
    61   31   93 1    
    62   31   94 1    
    63   31   95 1    
    64   32   33 am   BACKBONE|DICT|INTERRES
    65   32   96 1    
    66   33   34 2    
    67   33   35 1    
    68   35   36 1    
    69   35   37 1    
    70   35   97 1    
    71   36   98 1    
    72   36   99 1    
    73   36  100 1    
    74   37   38 am   BACKBONE|DICT|INTERRES
    75   37  101 1    
    76   38   39 2    
    77   38   40 1    
    78   40   41 1    
    79   40   42 1    
    80   40  102 1    
    81   41  103 1    
    82   41  104 1    
    83   41  105 1    
    84   42   43 am   BACKBONE|DICT|INTERRES
    85   42  106 1    
    86   43   44 2    
    87   43   45 1    
    88   45   46 1    
    89   45   49 1    
    90   45  107 1    
    91   46   47 1    
    92   46  108 1    
    93   46  109 1    
    94   47   48 1    
    95   48  110 1    
    96   48  111 1    
    97   49   50 am   BACKBONE|DICT|INTERRES
    98   49  112 1    
    99   50   51 2    
   100   50   52 1    
   101   52   53 1    
   102   52   54 1    
   103   52  113 1    
   104   53  114 1    
   105   53  115 1    
   106   53  116 1    
   107   54   55 am   BACKBONE|DICT|INTERRES
   108   54  117 1    
   109   55   56 2    
   110   55   57 1    
   111   57   58 1    
   112   57   59 1    
   113   57  118 1    
   114   58  119 1    
   115   58  120 1    
   116   58  121 1    
   117   59   60 am   BACKBONE|DICT|INTERRES
   118   59  122 1    
   119   60   61 2    
   120   60   62 1    
   121   62   63 1    
   122   62   64 1    
   123   62  123 1    
   124   63  124 1    
   125   63  125 1    
   126   63  126 1    
   127   64   65 am   BACKBONE|DICT|INTERRES
   128   64  127 1    
   129   65   66 2    
@<TRIPOS>SUBSTRUCTURE
     1 UNK         1 GROUP             0       ****    0 ROOT    
