@<TRIPOS>MOLECULE
3R135
127   129    1
SMALL
USER_CHARGES


@<TRIPOS>ATOM
      1 CA        -83.4862   26.8968  -70.4402 C.3       0 UNK        -0.1998 
      2 C         -83.5361   27.0261  -71.9551 C.2       0 UNK         0.4909 
      3 O         -84.5408   26.6652  -72.5688 O.2       0 UNK        -0.5240 
      4 N         -82.4580   27.5386  -72.5621 N.am      1 UNK        -0.4739 
      5 CA        -82.3276   27.7280  -74.0133 C.3       1 UNK         0.0864 
      6 C6        -81.2097   28.7385  -74.3621 C.3       11 UNK        -0.0881 
      7 S7        -81.5521   30.4310  -73.7704 S.3       11 UNK        -0.2682 
      8 C8        -80.6598   30.5118  -72.1799 C.3       11 UNK         0.0289 
      9 C9        -79.1907   30.1150  -72.2792 C.ar      11 UNK        -0.0687 
     10 C10       -78.6800   29.1158  -71.4475 C.ar      11 UNK        -0.0823 
     11 C11       -77.3312   28.7559  -71.5070 C.ar      11 UNK        -0.0830 
     12 C12       -76.4923   29.3999  -72.4259 C.ar      11 UNK        -0.1021 
     13 C13       -76.9850   30.4102  -73.2658 C.ar      11 UNK        -0.0753 
     14 C14       -78.3358   30.7609  -73.1762 C.ar      11 UNK        -0.0933 
     15 C15       -76.1130   31.1831  -74.2603 C.3       11 UNK         0.0166 
     16 S16       -74.5298   30.4049  -74.7267 S.3       11 UNK        -0.2615 
     17 C17       -73.4380   30.9608  -73.3767 C.3       11 UNK        -0.0865 
     18 CA        -72.0098   30.3614  -73.4646 C.3       10 UNK         0.0862 
     19 C         -71.1218   30.9499  -72.3275 C.2       10 UNK         0.5551 
     20 N         -70.7384   30.1795  -71.3165 N.am      10 UNK        -0.7319 
     21 O         -70.7789   32.1290  -72.3664 O.2       10 UNK        -0.5018 
     22 N         -72.0269   28.8883  -73.5560 N.am      10 UNK        -0.4509 
     23 C         -70.9607   28.1271  -73.8411 C.2       10 UNK         0.4899 
     24 O         -69.8435   28.5755  -74.0994 O.2       10 UNK        -0.4839 
     25 CA        -71.1740   26.6093  -73.8503 C.3       9 UNK         0.0222 
     26 CB        -71.9561   26.1142  -72.6197 C.3       9 UNK        -0.1966 
     27 N         -71.8785   26.2346  -75.0739 N.am      9 UNK        -0.4218 
     28 C         -71.3348   25.5506  -76.0898 C.2       9 UNK         0.5020 
     29 O         -70.1868   25.1027  -76.0846 O.2       9 UNK        -0.5274 
     30 CA        -72.2125   25.3180  -77.3319 C.3       8 UNK         0.0270 
     31 CB        -73.0683   24.0538  -77.1581 C.3       8 UNK        -0.1976 
     32 N         -73.0873   26.4448  -77.6534 N.am      8 UNK        -0.4313 
     33 C         -72.6952   27.6675  -78.0307 C.2       8 UNK         0.5041 
     34 O         -71.5158   27.9857  -78.1862 O.2       8 UNK        -0.5577 
     35 CA        -73.7899   28.7266  -78.2709 C.3       7 UNK         0.0284 
     36 CB        -74.1740   28.8024  -79.7616 C.3       7 UNK        -0.1958 
     37 N         -74.9757   28.5886  -77.4113 N.am      7 UNK        -0.4454 
     38 C         -75.8991   27.6192  -77.3932 C.2       7 UNK         0.5089 
     39 O         -75.9141   26.6612  -78.1671 O.2       7 UNK        -0.5125 
     40 CA        -76.9375   27.6960  -76.2648 C.3       6 UNK         0.0408 
     41 CB        -78.3648   27.6742  -76.8319 C.3       6 UNK        -0.1791 
     42 N         -76.7824   26.6013  -75.3048 N.am      6 UNK        -0.4762 
     43 C         -75.6802   26.3361  -74.5856 C.2       6 UNK         0.5007 
     44 O         -74.6200   26.9557  -74.6911 O.2       6 UNK        -0.5032 
     45 CA        -75.7644   25.1704  -73.5869 C.3       5 UNK         0.0783 
     46 C46       -76.5561   25.5567  -72.3138 C.3       11 UNK        -0.0857 
     47 S47       -75.5540   26.5779  -71.1849 S.3       11 UNK        -0.2512 
     48 C48       -76.7965   27.7273  -70.5111 C.3       11 UNK         0.0225 
     49 N         -76.3292   23.9859  -74.2334 N.am      5 UNK        -0.4615 
     50 C         -75.6674   22.8376  -74.4352 C.2       4 UNK         0.5053 
     51 O         -74.5080   22.6438  -74.0696 O.2       4 UNK        -0.5105 
     52 CA        -76.4114   21.6962  -75.1561 C.3       4 UNK         0.0263 
     53 CB        -76.8761   20.6375  -74.1426 C.3       4 UNK        -0.1981 
     54 N         -77.5670   22.1514  -75.9293 N.am      4 UNK        -0.4224 
     55 C         -77.5017   22.8776  -77.0537 C.2       3 UNK         0.4895 
     56 O         -76.4505   23.1337  -77.6391 O.2       3 UNK        -0.5091 
     57 CA        -78.8288   23.4297  -77.6094 C.3       3 UNK         0.0250 
     58 CB        -79.2736   22.6197  -78.8381 C.3       3 UNK        -0.1996 
     59 N         -79.9329   23.4742  -76.6386 N.am      3 UNK        -0.4254 
     60 C         -79.9469   24.1946  -75.5082 C.2       2 UNK         0.5004 
     61 O         -78.9938   24.8697  -75.1104 O.2       2 UNK        -0.5226 
     62 CA        -81.2055   24.0829  -74.6354 C.3       2 UNK         0.0269 
     63 CB        -80.9700   23.0810  -73.4933 C.3       2 UNK        -0.1926 
     64 N         -81.5680   25.3800  -74.0647 N.am      2 UNK        -0.4687 
     65 C         -82.0876   26.3997  -74.7637 C.2       1 UNK         0.5165 
     66 O         -82.3756   26.3240  -75.9592 O.2       1 UNK        -0.5079 
     67 H67       -83.6032   25.8533  -70.1488 H         1 UNK         0.0900 
     68 H68       -84.2958   27.4696  -69.9885 H         1 UNK         0.0900 
     69 H69       -82.5444   27.2603  -70.0295 H         1 UNK         0.0900 
     70 H70       -81.6635   27.8240  -72.0100 H         1 UNK         0.2959 
     71 H71       -83.2727   28.1282  -74.3882 H         1 UNK         0.1079 
     72 H72       -80.2437   28.3898  -73.9944 H         1 UNK         0.0837 
     73 H73       -81.1041   28.8173  -75.4459 H         1 UNK         0.0837 
     74 H74       -80.7195   31.5329  -71.8012 H         1 UNK         0.0685 
     75 H75       -81.1837   29.8905  -71.4528 H         1 UNK         0.0685 
     76 H76       -79.3300   28.6327  -70.7309 H         1 UNK         0.1434 
     77 H77       -75.4528   29.1144  -72.4678 H         1 UNK         0.1329 
     78 H78       -78.7294   31.5443  -73.8096 H         1 UNK         0.1335 
     79 H79       -76.6803   31.3274  -75.1811 H         1 UNK         0.0680 
     80 H80       -75.9206   32.1807  -73.8631 H         1 UNK         0.0680 
     81 H81       -73.8928   30.7206  -72.4150 H         1 UNK         0.1032 
     82 H82       -73.3901   32.0509  -73.4198 H         1 UNK         0.1032 
     83 H83       -71.5696   30.7170  -74.3983 H         1 UNK         0.0461 
     84 H84       -70.1626   30.5700  -70.5875 H         1 UNK         0.3453 
     85 H85       -71.0167   29.2127  -71.2784 H         1 UNK         0.3453 
     86 H86       -72.9238   28.4451  -73.4157 H         1 UNK         0.2984 
     87 H87       -70.1875   26.1425  -73.8152 H         1 UNK         0.0554 
     88 H88       -72.0466   25.0278  -72.6243 H         1 UNK         0.0847 
     89 H89       -72.9622   26.5272  -72.5741 H         1 UNK         0.0847 
     90 H90       -71.4471   26.3917  -71.6959 H         1 UNK         0.0847 
     91 H91       -72.8346   26.5733  -75.1620 H         1 UNK         0.3141 
     92 H92       -71.5451   25.1657  -78.1826 H         1 UNK         0.0743 
     93 H93       -73.8006   24.1743  -76.3595 H         1 UNK         0.0784 
     94 H94       -73.6117   23.8117  -78.0718 H         1 UNK         0.0784 
     95 H95       -72.4507   23.1900  -76.9084 H         1 UNK         0.0784 
     96 H96       -74.0888   26.2770  -77.6228 H         1 UNK         0.3213 
     97 H97       -73.3481   29.6866  -77.9981 H         1 UNK         0.0855 
     98 H98       -73.2995   29.0221  -80.3754 H         1 UNK         0.0814 
     99 H99       -74.9042   29.5908  -79.9438 H         1 UNK         0.0814 
    100 H100      -74.5939   27.8641  -80.1250 H         1 UNK         0.0814 
    101 H101      -75.0161   29.2626  -76.6549 H         1 UNK         0.3105 
    102 H102      -76.8084   28.6300  -75.7162 H         1 UNK         0.0547 
    103 H103      -78.5438   28.5368  -77.4746 H         1 UNK         0.0837 
    104 H104      -78.5513   26.7791  -77.4251 H         1 UNK         0.0837 
    105 H105      -79.1047   27.6988  -76.0349 H         1 UNK         0.0837 
    106 H106      -77.6010   26.0089  -75.1792 H         1 UNK         0.3020 
    107 H107      -74.7372   24.9526  -73.2862 H         1 UNK         0.1245 
    108 H108      -76.8367   24.6582  -71.7619 H         1 UNK         0.0781 
    109 H109      -77.4934   26.0593  -72.5621 H         1 UNK         0.0781 
    110 H110      -76.3459   28.2667  -69.6772 H         1 UNK         0.0836 
    111 H111      -77.6121   27.1386  -70.0879 H         1 UNK         0.0836 
    112 H112      -77.2757   24.0818  -74.5869 H         1 UNK         0.3022 
    113 H113      -75.7038   21.2282  -75.8440 H         1 UNK         0.0747 
    114 H114      -77.3420   19.7872  -74.6411 H         1 UNK         0.0793 
    115 H115      -76.0329   20.2509  -73.5682 H         1 UNK         0.0793 
    116 H116      -77.5944   21.0467  -73.4308 H         1 UNK         0.0793 
    117 H117      -78.4779   21.9706  -75.5347 H         1 UNK         0.3047 
    118 H118      -78.6317   24.4541  -77.9304 H         1 UNK         0.0822 
    119 H119      -80.1539   23.0595  -79.3074 H         1 UNK         0.0807 
    120 H120      -79.5098   21.5872  -78.5777 H         1 UNK         0.0807 
    121 H121      -78.4872   22.5930  -79.5941 H         1 UNK         0.0807 
    122 H122      -80.7515   22.9315  -76.8755 H         1 UNK         0.2946 
    123 H123      -82.0390   23.7315  -75.2481 H         1 UNK         0.1144 
    124 H124      -80.7345   22.0897  -73.8827 H         1 UNK         0.0793 
    125 H125      -81.8568   22.9779  -72.8675 H         1 UNK         0.0793 
    126 H126      -80.1410   23.3853  -72.8524 H         1 UNK         0.0793 
    127 H127      -81.3393   25.5330  -73.0940 H         1 UNK         0.2896 
@<TRIPOS>BOND
     1    1    2 1    
     2    1   67 1    
     3    1   68 1    
     4    1   69 1    
     5    2    3 2    
     6    2    4 am   BACKBONE|DICT|INTERRES
     7    4    5 1    
     8    4   70 1    
     9    5    6 1    
    10    5   65 1    
    11    5   71 1    
    12    6    7 1    
    13    6   72 1    
    14    6   73 1    
    15    7    8 1    
    16    8    9 1    
    17    8   74 1    
    18    8   75 1    
    19    9   10 ar   
    20    9   14 ar   
    21   10   11 ar   
    22   10   76 1    
    23   11   12 ar   
    24   11   48 1    
    25   12   13 ar   
    26   12   77 1    
    27   13   14 ar   
    28   13   15 1    
    29   14   78 1    
    30   15   16 1    
    31   15   79 1    
    32   15   80 1    
    33   16   17 1    
    34   17   18 1    
    35   17   81 1    
    36   17   82 1    
    37   18   19 1    
    38   18   22 1    
    39   18   83 1    
    40   19   20 am   BACKBONE|DICT|INTERRES
    41   19   21 2    
    42   20   84 1    
    43   20   85 1    
    44   22   23 am   BACKBONE|DICT|INTERRES
    45   22   86 1    
    46   23   24 2    
    47   23   25 1    
    48   25   26 1    
    49   25   27 1    
    50   25   87 1    
    51   26   88 1    
    52   26   89 1    
    53   26   90 1    
    54   27   28 am   BACKBONE|DICT|INTERRES
    55   27   91 1    
    56   28   29 2    
    57   28   30 1    
    58   30   31 1    
    59   30   32 1    
    60   30   92 1    
    61   31   93 1    
    62   31   94 1    
    63   31   95 1    
    64   32   33 am   BACKBONE|DICT|INTERRES
    65   32   96 1    
    66   33   34 2    
    67   33   35 1    
    68   35   36 1    
    69   35   37 1    
    70   35   97 1    
    71   36   98 1    
    72   36   99 1    
    73   36  100 1    
    74   37   38 am   BACKBONE|DICT|INTERRES
    75   37  101 1    
    76   38   39 2    
    77   38   40 1    
    78   40   41 1    
    79   40   42 1    
    80   40  102 1    
    81   41  103 1    
    82   41  104 1    
    83   41  105 1    
    84   42   43 am   BACKBONE|DICT|INTERRES
    85   42  106 1    
    86   43   44 2    
    87   43   45 1    
    88   45   46 1    
    89   45   49 1    
    90   45  107 1    
    91   46   47 1    
    92   46  108 1    
    93   46  109 1    
    94   47   48 1    
    95   48  110 1    
    96   48  111 1    
    97   49   50 am   BACKBONE|DICT|INTERRES
    98   49  112 1    
    99   50   51 2    
   100   50   52 1    
   101   52   53 1    
   102   52   54 1    
   103   52  113 1    
   104   53  114 1    
   105   53  115 1    
   106   53  116 1    
   107   54   55 am   BACKBONE|DICT|INTERRES
   108   54  117 1    
   109   55   56 2    
   110   55   57 1    
   111   57   58 1    
   112   57   59 1    
   113   57  118 1    
   114   58  119 1    
   115   58  120 1    
   116   58  121 1    
   117   59   60 am   BACKBONE|DICT|INTERRES
   118   59  122 1    
   119   60   61 2    
   120   60   62 1    
   121   62   63 1    
   122   62   64 1    
   123   62  123 1    
   124   63  124 1    
   125   63  125 1    
   126   63  126 1    
   127   64   65 am   BACKBONE|DICT|INTERRES
   128   64  127 1    
   129   65   66 2    
@<TRIPOS>SUBSTRUCTURE
     1 UNK         1 GROUP             0       ****    0 ROOT    
