@<TRIPOS>MOLECULE
3R135
127   129    1
SMALL
USER_CHARGES


@<TRIPOS>ATOM
      1 CA        -85.5821   28.9563  -76.0080 C.3       0 UNK        -0.1998 
      2 C         -84.1261   28.6749  -76.3476 C.2       0 UNK         0.4909 
      3 O         -83.7532   28.7151  -77.5204 O.2       0 UNK        -0.5240 
      4 N         -83.3017   28.3940  -75.3293 N.am      1 UNK        -0.4739 
      5 CA        -81.8713   28.0846  -75.4637 C.3       1 UNK         0.0864 
      6 C6        -81.1484   28.1523  -74.0936 C.3       11 UNK        -0.0881 
      7 S7        -80.8354   29.8885  -73.6302 S.3       11 UNK        -0.2682 
      8 C8        -80.3464   29.7542  -71.8815 C.3       11 UNK         0.0289 
      9 C9        -78.9265   29.2314  -71.6955 C.ar      11 UNK        -0.0687 
     10 C10       -78.7073   28.0175  -71.0362 C.ar      11 UNK        -0.0823 
     11 C11       -77.4060   27.5656  -70.7999 C.ar      11 UNK        -0.0830 
     12 C12       -76.3261   28.3260  -71.2456 C.ar      11 UNK        -0.1021 
     13 C13       -76.5206   29.5272  -71.9291 C.ar      11 UNK        -0.0753 
     14 C14       -77.8287   29.9813  -72.1389 C.ar      11 UNK        -0.0933 
     15 C15       -75.3292   30.3051  -72.4842 C.3       11 UNK         0.0166 
     16 S16       -74.1138   30.8097  -71.2207 S.3       11 UNK        -0.2615 
     17 C17       -72.8920   29.4436  -71.2302 C.3       11 UNK        -0.0865 
     18 CA        -71.7094   29.6901  -72.2001 C.3       10 UNK         0.0862 
     19 C         -70.5346   28.7237  -71.9006 C.2       10 UNK         0.5551 
     20 N         -69.4704   29.2117  -71.2786 N.am      10 UNK        -0.7319 
     21 O         -70.6000   27.5296  -72.1857 O.2       10 UNK        -0.5018 
     22 N         -72.1330   29.5403  -73.5966 N.am      10 UNK        -0.4509 
     23 C         -71.5967   30.2055  -74.6251 C.2       10 UNK         0.4899 
     24 O         -70.7247   31.0683  -74.5050 O.2       10 UNK        -0.4839 
     25 CA        -72.1426   29.8458  -76.0190 C.3       9 UNK         0.0222 
     26 CB        -71.4344   30.5995  -77.1650 C.3       9 UNK        -0.1966 
     27 N         -72.1504   28.4008  -76.2699 N.am      9 UNK        -0.4218 
     28 C         -71.1003   27.5640  -76.3060 C.2       9 UNK         0.5020 
     29 O         -69.9336   27.9182  -76.1309 O.2       9 UNK        -0.5274 
     30 CA        -71.3827   26.0721  -76.5855 C.3       8 UNK         0.0270 
     31 CB        -71.1116   25.2342  -75.3248 C.3       8 UNK        -0.1976 
     32 N         -72.7462   25.7988  -77.0487 N.am      8 UNK        -0.4313 
     33 C         -73.2433   26.1207  -78.2511 C.2       8 UNK         0.5041 
     34 O         -72.5717   26.5945  -79.1677 O.2       8 UNK        -0.5577 
     35 CA        -74.7627   25.9433  -78.4335 C.3       7 UNK         0.0284 
     36 CB        -75.1045   24.5182  -78.8975 C.3       7 UNK        -0.1958 
     37 N         -75.5075   26.2719  -77.2104 N.am      7 UNK        -0.4454 
     38 C         -75.5813   27.5061  -76.6899 C.2       7 UNK         0.5089 
     39 O         -75.0990   28.5007  -77.2296 O.2       7 UNK        -0.5125 
     40 CA        -76.2359   27.6602  -75.3117 C.3       6 UNK         0.0408 
     41 CB        -77.7335   27.9435  -75.4347 C.3       6 UNK        -0.1791 
     42 N         -76.0076   26.4983  -74.4504 N.am      6 UNK        -0.4762 
     43 C         -74.8747   26.2980  -73.7586 C.2       6 UNK         0.5007 
     44 O         -73.9523   27.1155  -73.7254 O.2       6 UNK        -0.5032 
     45 CA        -74.7049   24.9413  -73.0349 C.3       5 UNK         0.0783 
     46 C46       -75.0570   25.0044  -71.5254 C.3       11 UNK        -0.0857 
     47 S47       -76.8479   24.8755  -71.1645 S.3       11 UNK        -0.2512 
     48 C48       -77.1574   26.2715  -70.0414 C.3       11 UNK         0.0225 
     49 N         -75.4045   23.8410  -73.7037 N.am      5 UNK        -0.4615 
     50 C         -75.1497   23.3964  -74.9379 C.2       4 UNK         0.5053 
     51 O         -74.2247   23.8198  -75.6283 O.2       4 UNK        -0.5105 
     52 CA        -76.1060   22.3401  -75.5212 C.3       4 UNK         0.0263 
     53 CB        -75.4796   20.9411  -75.4155 C.3       4 UNK        -0.1981 
     54 N         -77.4464   22.3195  -74.9182 N.am      4 UNK        -0.4224 
     55 C         -78.3214   23.3360  -74.9311 C.2       3 UNK         0.4895 
     56 O         -78.0651   24.4541  -75.3841 O.2       3 UNK        -0.5091 
     57 CA        -79.6849   23.0638  -74.2714 C.3       3 UNK         0.0250 
     58 CB        -79.6500   23.4291  -72.7804 C.3       3 UNK        -0.1996 
     59 N         -80.7690   23.8113  -74.9077 N.am      3 UNK        -0.4254 
     60 C         -81.2939   23.5308  -76.1075 C.2       2 UNK         0.5004 
     61 O         -80.9323   22.5834  -76.8071 O.2       2 UNK        -0.5226 
     62 CA        -82.4396   24.4346  -76.6036 C.3       2 UNK         0.0269 
     63 CB        -83.7954   23.7320  -76.4215 C.3       2 UNK        -0.1926 
     64 N         -82.4958   25.7500  -75.9539 N.am      2 UNK        -0.4687 
     65 C         -81.6183   26.7394  -76.1767 C.2       1 UNK         0.5165 
     66 O         -80.6546   26.6307  -76.9344 O.2       1 UNK        -0.5079 
     67 H67       -86.2296   28.2365  -76.5079 H         1 UNK         0.0900 
     68 H68       -85.7706   28.8951  -74.9363 H         1 UNK         0.0900 
     69 H69       -85.8592   29.9552  -76.3440 H         1 UNK         0.0900 
     70 H70       -83.6618   28.4033  -74.3856 H         1 UNK         0.2959 
     71 H71       -81.4345   28.8419  -76.1197 H         1 UNK         0.1079 
     72 H72       -81.7399   27.6653  -73.3163 H         1 UNK         0.0837 
     73 H73       -80.1968   27.6231  -74.1100 H         1 UNK         0.0837 
     74 H74       -80.4123   30.7442  -71.4283 H         1 UNK         0.0685 
     75 H75       -81.0692   29.1313  -71.3522 H         1 UNK         0.0685 
     76 H76       -79.5483   27.4342  -70.6867 H         1 UNK         0.1434 
     77 H77       -75.3300   27.9695  -71.0597 H         1 UNK         0.1329 
     78 H78       -77.9993   30.9143  -72.6584 H         1 UNK         0.1335 
     79 H79       -74.8281   29.7070  -73.2417 H         1 UNK         0.0680 
     80 H80       -75.6751   31.2056  -72.9935 H         1 UNK         0.0680 
     81 H81       -72.5268   29.3494  -70.2055 H         1 UNK         0.1032 
     82 H82       -73.3597   28.4901  -71.4643 H         1 UNK         0.1032 
     83 H83       -71.3600   30.7129  -72.0416 H         1 UNK         0.0461 
     84 H84       -68.7039   28.5941  -71.0612 H         1 UNK         0.3453 
     85 H85       -69.4118   30.1883  -71.0341 H         1 UNK         0.3453 
     86 H86       -72.7799   28.7792  -73.7788 H         1 UNK         0.2984 
     87 H87       -73.1878   30.1584  -76.0226 H         1 UNK         0.0554 
     88 H88       -71.5283   31.6787  -77.0387 H         1 UNK         0.0847 
     89 H89       -71.8699   30.3480  -78.1321 H         1 UNK         0.0847 
     90 H90       -70.3693   30.3695  -77.2066 H         1 UNK         0.0847 
     91 H91       -73.0654   28.0063  -76.4441 H         1 UNK         0.3141 
     92 H92       -70.6911   25.7506  -77.3669 H         1 UNK         0.0743 
     93 H93       -71.7478   25.5425  -74.4947 H         1 UNK         0.0784 
     94 H94       -71.2824   24.1726  -75.5052 H         1 UNK         0.0784 
     95 H95       -70.0773   25.3459  -74.9964 H         1 UNK         0.0784 
     96 H96       -73.3549   25.3018  -76.4017 H         1 UNK         0.3213 
     97 H97       -75.0846   26.6371  -79.2135 H         1 UNK         0.0855 
     98 H98       -74.7503   23.7624  -78.1973 H         1 UNK         0.0814 
     99 H99       -74.6382   24.3057  -79.8604 H         1 UNK         0.0814 
    100 H100      -76.1793   24.3860  -79.0226 H         1 UNK         0.0814 
    101 H101      -75.9260   25.5075  -76.6992 H         1 UNK         0.3105 
    102 H102      -75.7874   28.5382  -74.8492 H         1 UNK         0.0547 
    103 H103      -77.9287   28.7608  -76.1302 H         1 UNK         0.0837 
    104 H104      -78.2865   27.0726  -75.7846 H         1 UNK         0.0837 
    105 H105      -78.1315   28.2437  -74.4677 H         1 UNK         0.0837 
    106 H106      -76.7180   25.7736  -74.4623 H         1 UNK         0.3020 
    107 H107      -73.6383   24.7148  -73.1018 H         1 UNK         0.1245 
    108 H108      -74.6233   25.8873  -71.0566 H         1 UNK         0.0781 
    109 H109      -74.5801   24.1619  -71.0222 H         1 UNK         0.0781 
    110 H110      -76.3217   26.3882  -69.3497 H         1 UNK         0.0836 
    111 H111      -78.0245   26.0317  -69.4241 H         1 UNK         0.0836 
    112 H112      -76.1910   23.4559  -73.2012 H         1 UNK         0.3022 
    113 H113      -76.2333   22.5762  -76.5793 H         1 UNK         0.0747 
    114 H114      -76.0899   20.1924  -75.9209 H         1 UNK         0.0793 
    115 H115      -74.4932   20.9186  -75.8816 H         1 UNK         0.0793 
    116 H116      -75.3561   20.6310  -74.3770 H         1 UNK         0.0793 
    117 H117      -77.7325   21.4447  -74.5017 H         1 UNK         0.3047 
    118 H118      -79.9098   21.9987  -74.3622 H         1 UNK         0.0822 
    119 H119      -78.8757   22.8678  -72.2562 H         1 UNK         0.0807 
    120 H120      -80.5973   23.1988  -72.2924 H         1 UNK         0.0807 
    121 H121      -79.4466   24.4905  -72.6315 H         1 UNK         0.0807 
    122 H122      -81.1103   24.6250  -74.4197 H         1 UNK         0.2946 
    123 H123      -82.2780   24.5915  -77.6728 H         1 UNK         0.1144 
    124 H124      -84.6080   24.3199  -76.8488 H         1 UNK         0.0793 
    125 H125      -84.0221   23.5578  -75.3689 H         1 UNK         0.0793 
    126 H126      -83.8033   22.7621  -76.9211 H         1 UNK         0.0793 
    127 H127      -83.2749   25.9263  -75.3357 H         1 UNK         0.2896 
@<TRIPOS>BOND
     1    1    2 1    
     2    1   67 1    
     3    1   68 1    
     4    1   69 1    
     5    2    3 2    
     6    2    4 am   BACKBONE|DICT|INTERRES
     7    4    5 1    
     8    4   70 1    
     9    5    6 1    
    10    5   65 1    
    11    5   71 1    
    12    6    7 1    
    13    6   72 1    
    14    6   73 1    
    15    7    8 1    
    16    8    9 1    
    17    8   74 1    
    18    8   75 1    
    19    9   10 ar   
    20    9   14 ar   
    21   10   11 ar   
    22   10   76 1    
    23   11   12 ar   
    24   11   48 1    
    25   12   13 ar   
    26   12   77 1    
    27   13   14 ar   
    28   13   15 1    
    29   14   78 1    
    30   15   16 1    
    31   15   79 1    
    32   15   80 1    
    33   16   17 1    
    34   17   18 1    
    35   17   81 1    
    36   17   82 1    
    37   18   19 1    
    38   18   22 1    
    39   18   83 1    
    40   19   20 am   BACKBONE|DICT|INTERRES
    41   19   21 2    
    42   20   84 1    
    43   20   85 1    
    44   22   23 am   BACKBONE|DICT|INTERRES
    45   22   86 1    
    46   23   24 2    
    47   23   25 1    
    48   25   26 1    
    49   25   27 1    
    50   25   87 1    
    51   26   88 1    
    52   26   89 1    
    53   26   90 1    
    54   27   28 am   BACKBONE|DICT|INTERRES
    55   27   91 1    
    56   28   29 2    
    57   28   30 1    
    58   30   31 1    
    59   30   32 1    
    60   30   92 1    
    61   31   93 1    
    62   31   94 1    
    63   31   95 1    
    64   32   33 am   BACKBONE|DICT|INTERRES
    65   32   96 1    
    66   33   34 2    
    67   33   35 1    
    68   35   36 1    
    69   35   37 1    
    70   35   97 1    
    71   36   98 1    
    72   36   99 1    
    73   36  100 1    
    74   37   38 am   BACKBONE|DICT|INTERRES
    75   37  101 1    
    76   38   39 2    
    77   38   40 1    
    78   40   41 1    
    79   40   42 1    
    80   40  102 1    
    81   41  103 1    
    82   41  104 1    
    83   41  105 1    
    84   42   43 am   BACKBONE|DICT|INTERRES
    85   42  106 1    
    86   43   44 2    
    87   43   45 1    
    88   45   46 1    
    89   45   49 1    
    90   45  107 1    
    91   46   47 1    
    92   46  108 1    
    93   46  109 1    
    94   47   48 1    
    95   48  110 1    
    96   48  111 1    
    97   49   50 am   BACKBONE|DICT|INTERRES
    98   49  112 1    
    99   50   51 2    
   100   50   52 1    
   101   52   53 1    
   102   52   54 1    
   103   52  113 1    
   104   53  114 1    
   105   53  115 1    
   106   53  116 1    
   107   54   55 am   BACKBONE|DICT|INTERRES
   108   54  117 1    
   109   55   56 2    
   110   55   57 1    
   111   57   58 1    
   112   57   59 1    
   113   57  118 1    
   114   58  119 1    
   115   58  120 1    
   116   58  121 1    
   117   59   60 am   BACKBONE|DICT|INTERRES
   118   59  122 1    
   119   60   61 2    
   120   60   62 1    
   121   62   63 1    
   122   62   64 1    
   123   62  123 1    
   124   63  124 1    
   125   63  125 1    
   126   63  126 1    
   127   64   65 am   BACKBONE|DICT|INTERRES
   128   64  127 1    
   129   65   66 2    
@<TRIPOS>SUBSTRUCTURE
     1 UNK         1 GROUP             0       ****    0 ROOT    
