@<TRIPOS>MOLECULE
3R135
127   129    1
SMALL
USER_CHARGES


@<TRIPOS>ATOM
      1 CA        -84.1226   26.6608  -73.0381 C.3       0 UNK        -0.1998 
      2 C         -82.7685   26.5863  -72.3393 C.2       0 UNK         0.4909 
      3 O         -82.5928   25.7584  -71.4489 O.2       0 UNK        -0.5240 
      4 N         -81.7839   27.4225  -72.6945 N.am      1 UNK        -0.4739 
      5 CA        -81.8269   28.4480  -73.7463 C.3       1 UNK         0.0864 
      6 C6        -80.8293   29.5931  -73.4480 C.3       11 UNK        -0.0881 
      7 S7        -81.4467   30.7321  -72.1576 S.3       11 UNK        -0.2682 
      8 C8        -80.9670   29.9335  -70.5869 C.3       11 UNK         0.0289 
      9 C9        -79.4945   29.5530  -70.5341 C.ar      11 UNK        -0.0687 
     10 C10       -79.1228   28.2206  -70.3319 C.ar      11 UNK        -0.0823 
     11 C11       -77.7744   27.8553  -70.3346 C.ar      11 UNK        -0.0830 
     12 C12       -76.7950   28.8381  -70.4933 C.ar      11 UNK        -0.1021 
     13 C13       -77.1526   30.1706  -70.7149 C.ar      11 UNK        -0.0753 
     14 C14       -78.5048   30.5239  -70.7189 C.ar      11 UNK        -0.0933 
     15 C15       -76.0853   31.2203  -70.9912 C.3       11 UNK         0.0166 
     16 S16       -75.2919   30.9505  -72.6132 S.3       11 UNK        -0.2615 
     17 C17       -73.9710   29.7636  -72.1845 C.3       11 UNK        -0.0865 
     18 CA        -72.6546   30.0656  -72.9461 C.3       10 UNK         0.0862 
     19 C         -71.4069   29.5036  -72.1966 C.2       10 UNK         0.5551 
     20 N         -70.5093   28.7545  -72.8243 N.am      10 UNK        -0.7319 
     21 O         -71.2386   29.7682  -71.0089 O.2       10 UNK        -0.5018 
     22 N         -72.7618   29.6540  -74.3549 N.am      10 UNK        -0.4509 
     23 C         -72.0525   30.1775  -75.3615 C.2       10 UNK         0.4899 
     24 O         -71.3091   31.1531  -75.2433 O.2       10 UNK        -0.4839 
     25 CA        -72.1727   29.4499  -76.7155 C.3       9 UNK         0.0222 
     26 CB        -71.1629   29.9566  -77.7661 C.3       9 UNK        -0.1966 
     27 N         -72.0816   27.9904  -76.5749 N.am      9 UNK        -0.4218 
     28 C         -71.0859   27.2859  -76.0125 C.2       9 UNK         0.5020 
     29 O         -70.0588   27.7957  -75.5639 O.2       9 UNK        -0.5274 
     30 CA        -71.2695   25.7638  -75.8687 C.3       8 UNK         0.0270 
     31 CB        -71.5043   25.4039  -74.3917 C.3       8 UNK        -0.1976 
     32 N         -72.3694   25.2267  -76.6725 N.am      8 UNK        -0.4313 
     33 C         -72.3309   25.0655  -78.0024 C.2       8 UNK         0.5041 
     34 O         -71.3285   25.2676  -78.6887 O.2       8 UNK        -0.5577 
     35 CA        -73.6444   24.6525  -78.6881 C.3       7 UNK         0.0284 
     36 CB        -73.8316   23.1288  -78.6283 C.3       7 UNK        -0.1958 
     37 N         -74.8211   25.3215  -78.1223 N.am      7 UNK        -0.4454 
     38 C         -75.0299   26.6465  -78.1405 C.2       7 UNK         0.5089 
     39 O         -74.2586   27.4548  -78.6549 O.2       7 UNK        -0.5125 
     40 CA        -76.2836   27.1676  -77.4246 C.3       6 UNK         0.0408 
     41 CB        -77.5264   27.0336  -78.3180 C.3       6 UNK        -0.1791 
     42 N         -76.5119   26.4817  -76.1551 N.am      6 UNK        -0.4762 
     43 C         -75.7937   26.6728  -75.0387 C.2       6 UNK         0.5007 
     44 O         -74.8595   27.4722  -74.9410 O.2       6 UNK        -0.5032 
     45 CA        -76.1824   25.7874  -73.8381 C.3       5 UNK         0.0783 
     46 C46       -77.4142   26.3882  -73.1203 C.3       11 UNK        -0.0857 
     47 S47       -77.9656   25.4184  -71.6696 S.3       11 UNK        -0.2512 
     48 C48       -77.3697   26.3913  -70.2433 C.3       11 UNK         0.0225 
     49 N         -76.4034   24.3955  -74.2459 N.am      5 UNK        -0.4615 
     50 C         -75.4607   23.5924  -74.7572 C.2       4 UNK         0.5053 
     51 O         -74.2960   23.9387  -74.9464 O.2       4 UNK        -0.5105 
     52 CA        -75.8924   22.1750  -75.1677 C.3       4 UNK         0.0263 
     53 CB        -75.7967   21.2198  -73.9684 C.3       4 UNK        -0.1981 
     54 N         -77.2373   22.1023  -75.7446 N.am      4 UNK        -0.4224 
     55 C         -77.6671   22.7902  -76.8117 C.2       3 UNK         0.4895 
     56 O         -76.9730   23.5972  -77.4319 O.2       3 UNK        -0.5091 
     57 CA        -79.1207   22.5640  -77.2654 C.3       3 UNK         0.0250 
     58 CB        -79.8748   21.4688  -76.4748 C.3       3 UNK        -0.1996 
     59 N         -79.8899   23.8136  -77.2655 N.am      3 UNK        -0.4254 
     60 C         -80.1056   24.6263  -76.2206 C.2       2 UNK         0.5004 
     61 O         -79.6224   24.4557  -75.0973 O.2       2 UNK        -0.5226 
     62 CA        -81.0354   25.8206  -76.4763 C.3       2 UNK         0.0269 
     63 CB        -82.4279   25.3594  -76.9596 C.3       2 UNK        -0.1926 
     64 N         -81.1781   26.5904  -75.2430 N.am      2 UNK        -0.4687 
     65 C         -81.6025   27.8564  -75.1564 C.2       1 UNK         0.5165 
     66 O         -81.8539   28.5498  -76.1425 O.2       1 UNK        -0.5079 
     67 H67       -84.0219   26.5331  -74.1151 H         1 UNK         0.0900 
     68 H68       -84.7809   25.8722  -72.6759 H         1 UNK         0.0900 
     69 H69       -84.6079   27.6148  -72.8375 H         1 UNK         0.0900 
     70 H70       -80.8984   27.3424  -72.2174 H         1 UNK         0.2959 
     71 H71       -82.8257   28.8863  -73.7728 H         1 UNK         0.1079 
     72 H72       -80.6738   30.2097  -74.3356 H         1 UNK         0.0837 
     73 H73       -79.8430   29.2057  -73.1891 H         1 UNK         0.0837 
     74 H74       -81.6024   29.0617  -70.4260 H         1 UNK         0.0685 
     75 H75       -81.1824   30.6195  -69.7668 H         1 UNK         0.0685 
     76 H76       -79.8794   27.4577  -70.2068 H         1 UNK         0.1434 
     77 H77       -75.7534   28.5545  -70.4927 H         1 UNK         0.1329 
     78 H78       -78.7936   31.5508  -70.8963 H         1 UNK         0.1335 
     79 H79       -76.5288   32.2173  -70.9923 H         1 UNK         0.0680 
     80 H80       -75.3447   31.2235  -70.1905 H         1 UNK         0.0680 
     81 H81       -74.3141   28.7497  -72.3971 H         1 UNK         0.1032 
     82 H82       -73.8112   29.8067  -71.1062 H         1 UNK         0.1032 
     83 H83       -72.5110   31.1477  -72.9287 H         1 UNK         0.0461 
     84 H84       -69.7137   28.4182  -72.3065 H         1 UNK         0.3453 
     85 H85       -70.5736   28.5608  -73.8169 H         1 UNK         0.3453 
     86 H86       -73.3676   28.8625  -74.5461 H         1 UNK         0.2984 
     87 H87       -73.1757   29.6597  -77.0898 H         1 UNK         0.0554 
     88 H88       -71.2958   31.0225  -77.9547 H         1 UNK         0.0847 
     89 H89       -71.2916   29.4413  -78.7179 H         1 UNK         0.0847 
     90 H90       -70.1323   29.8096  -77.4415 H         1 UNK         0.0847 
     91 H91       -72.8813   27.4778  -76.9246 H         1 UNK         0.3141 
     92 H92       -70.3408   25.2899  -76.1934 H         1 UNK         0.0743 
     93 H93       -70.6812   25.7510  -73.7656 H         1 UNK         0.0784 
     94 H94       -72.4196   25.8575  -74.0082 H         1 UNK         0.0784 
     95 H95       -71.5817   24.3253  -74.2535 H         1 UNK         0.0784 
     96 H96       -73.2089   24.9533  -76.1659 H         1 UNK         0.3213 
     97 H97       -73.5758   24.9460  -79.7377 H         1 UNK         0.0855 
     98 H98       -73.8770   22.7705  -77.6005 H         1 UNK         0.0814 
     99 H99       -73.0012   22.6158  -79.1150 H         1 UNK         0.0814 
    100 H100      -74.7466   22.8187  -79.1336 H         1 UNK         0.0814 
    101 H101      -75.5428   24.7228  -77.7241 H         1 UNK         0.3105 
    102 H102      -76.1315   28.2291  -77.2164 H         1 UNK         0.0547 
    103 H103      -78.3976   27.4920  -77.8512 H         1 UNK         0.0837 
    104 H104      -77.7654   25.9912  -78.5319 H         1 UNK         0.0837 
    105 H105      -77.3732   27.5350  -79.2746 H         1 UNK         0.0837 
    106 H106      -77.2086   25.7494  -76.1509 H         1 UNK         0.3020 
    107 H107      -75.3394   25.7984  -73.1435 H         1 UNK         0.1245 
    108 H108      -78.2622   26.4431  -73.8051 H         1 UNK         0.0781 
    109 H109      -77.2102   27.4198  -72.8348 H         1 UNK         0.0781 
    110 H110      -76.2854   26.2892  -70.1787 H         1 UNK         0.0836 
    111 H111      -77.7734   25.9622  -69.3253 H         1 UNK         0.0836 
    112 H112      -77.3482   24.0472  -74.1482 H         1 UNK         0.3022 
    113 H113      -75.1950   21.8275  -75.9310 H         1 UNK         0.0747 
    114 H114      -75.9978   20.1896  -74.2631 H         1 UNK         0.0793 
    115 H115      -74.7964   21.2404  -73.5331 H         1 UNK         0.0793 
    116 H116      -76.5008   21.4888  -73.1801 H         1 UNK         0.0793 
    117 H117      -77.8909   21.4821  -75.2894 H         1 UNK         0.3047 
    118 H118      -79.0603   22.2370  -78.3047 H         1 UNK         0.0822 
    119 H119      -80.8761   21.3190  -76.8790 H         1 UNK         0.0807 
    120 H120      -79.9858   21.7207  -75.4192 H         1 UNK         0.0807 
    121 H121      -79.3633   20.5074  -76.5398 H         1 UNK         0.0807 
    122 H122      -80.2999   24.0626  -78.1546 H         1 UNK         0.2946 
    123 H123      -80.5719   26.4497  -77.2390 H         1 UNK         0.1144 
    124 H124      -82.9075   24.7051  -76.2303 H         1 UNK         0.0793 
    125 H125      -82.3680   24.8117  -77.9005 H         1 UNK         0.0793 
    126 H126      -83.0928   26.2057  -77.1329 H         1 UNK         0.0793 
    127 H127      -80.9251   26.0851  -74.4022 H         1 UNK         0.2896 
@<TRIPOS>BOND
     1    1    2 1    
     2    1   67 1    
     3    1   68 1    
     4    1   69 1    
     5    2    3 2    
     6    2    4 am   BACKBONE|DICT|INTERRES
     7    4    5 1    
     8    4   70 1    
     9    5    6 1    
    10    5   65 1    
    11    5   71 1    
    12    6    7 1    
    13    6   72 1    
    14    6   73 1    
    15    7    8 1    
    16    8    9 1    
    17    8   74 1    
    18    8   75 1    
    19    9   10 ar   
    20    9   14 ar   
    21   10   11 ar   
    22   10   76 1    
    23   11   12 ar   
    24   11   48 1    
    25   12   13 ar   
    26   12   77 1    
    27   13   14 ar   
    28   13   15 1    
    29   14   78 1    
    30   15   16 1    
    31   15   79 1    
    32   15   80 1    
    33   16   17 1    
    34   17   18 1    
    35   17   81 1    
    36   17   82 1    
    37   18   19 1    
    38   18   22 1    
    39   18   83 1    
    40   19   20 am   BACKBONE|DICT|INTERRES
    41   19   21 2    
    42   20   84 1    
    43   20   85 1    
    44   22   23 am   BACKBONE|DICT|INTERRES
    45   22   86 1    
    46   23   24 2    
    47   23   25 1    
    48   25   26 1    
    49   25   27 1    
    50   25   87 1    
    51   26   88 1    
    52   26   89 1    
    53   26   90 1    
    54   27   28 am   BACKBONE|DICT|INTERRES
    55   27   91 1    
    56   28   29 2    
    57   28   30 1    
    58   30   31 1    
    59   30   32 1    
    60   30   92 1    
    61   31   93 1    
    62   31   94 1    
    63   31   95 1    
    64   32   33 am   BACKBONE|DICT|INTERRES
    65   32   96 1    
    66   33   34 2    
    67   33   35 1    
    68   35   36 1    
    69   35   37 1    
    70   35   97 1    
    71   36   98 1    
    72   36   99 1    
    73   36  100 1    
    74   37   38 am   BACKBONE|DICT|INTERRES
    75   37  101 1    
    76   38   39 2    
    77   38   40 1    
    78   40   41 1    
    79   40   42 1    
    80   40  102 1    
    81   41  103 1    
    82   41  104 1    
    83   41  105 1    
    84   42   43 am   BACKBONE|DICT|INTERRES
    85   42  106 1    
    86   43   44 2    
    87   43   45 1    
    88   45   46 1    
    89   45   49 1    
    90   45  107 1    
    91   46   47 1    
    92   46  108 1    
    93   46  109 1    
    94   47   48 1    
    95   48  110 1    
    96   48  111 1    
    97   49   50 am   BACKBONE|DICT|INTERRES
    98   49  112 1    
    99   50   51 2    
   100   50   52 1    
   101   52   53 1    
   102   52   54 1    
   103   52  113 1    
   104   53  114 1    
   105   53  115 1    
   106   53  116 1    
   107   54   55 am   BACKBONE|DICT|INTERRES
   108   54  117 1    
   109   55   56 2    
   110   55   57 1    
   111   57   58 1    
   112   57   59 1    
   113   57  118 1    
   114   58  119 1    
   115   58  120 1    
   116   58  121 1    
   117   59   60 am   BACKBONE|DICT|INTERRES
   118   59  122 1    
   119   60   61 2    
   120   60   62 1    
   121   62   63 1    
   122   62   64 1    
   123   62  123 1    
   124   63  124 1    
   125   63  125 1    
   126   63  126 1    
   127   64   65 am   BACKBONE|DICT|INTERRES
   128   64  127 1    
   129   65   66 2    
@<TRIPOS>SUBSTRUCTURE
     1 UNK         1 GROUP             0       ****    0 ROOT    
