@<TRIPOS>MOLECULE
3R135
127   129    1
SMALL
USER_CHARGES


@<TRIPOS>ATOM
      1 CA        -77.0966   30.6451  -75.9729 C.3       0 UNK        -0.1998 
      2 C         -78.4989   30.2509  -75.5357 C.2       0 UNK         0.4909 
      3 O         -79.4672   30.8425  -76.0114 O.2       0 UNK        -0.5240 
      4 N         -78.5917   29.2735  -74.6228 N.am      1 UNK        -0.4739 
      5 CA        -79.8112   28.6700  -74.0694 C.3       1 UNK         0.0864 
      6 C6        -80.8267   29.6992  -73.5017 C.3       11 UNK        -0.0881 
      7 S7        -82.0038   28.9361  -72.3333 S.3       11 UNK        -0.2682 
      8 C8        -81.3559   29.4943  -70.7253 C.3       11 UNK         0.0289 
      9 C9        -79.9417   28.9935  -70.4657 C.ar      11 UNK        -0.0687 
     10 C10       -79.6939   27.6253  -70.3248 C.ar      11 UNK        -0.0823 
     11 C11       -78.3991   27.1604  -70.0812 C.ar      11 UNK        -0.0830 
     12 C12       -77.3568   28.0818  -69.9375 C.ar      11 UNK        -0.1021 
     13 C13       -77.5799   29.4541  -70.1112 C.ar      11 UNK        -0.0753 
     14 C14       -78.8805   29.8983  -70.3678 C.ar      11 UNK        -0.0933 
     15 C15       -76.4582   30.4924  -70.0247 C.3       11 UNK         0.0166 
     16 S16       -74.7595   29.8381  -70.1827 S.3       11 UNK        -0.2615 
     17 C17       -74.7305   29.2261  -71.9060 C.3       11 UNK        -0.0865 
     18 CA        -73.6240   29.9005  -72.7574 C.3       10 UNK         0.0862 
     19 C         -72.1984   29.4820  -72.2993 C.2       10 UNK         0.5551 
     20 N         -71.4225   30.4018  -71.7421 N.am      10 UNK        -0.7319 
     21 O         -71.8104   28.3219  -72.4180 O.2       10 UNK        -0.5018 
     22 N         -73.8153   29.6093  -74.1827 N.am      10 UNK        -0.4509 
     23 C         -73.2012   30.2576  -75.1806 C.2       10 UNK         0.4899 
     24 O         -72.5328   31.2816  -75.0279 O.2       10 UNK        -0.4839 
     25 CA        -73.3527   29.6264  -76.5773 C.3       9 UNK         0.0222 
     26 CB        -72.6142   30.4058  -77.6854 C.3       9 UNK        -0.1966 
     27 N         -72.9600   28.2128  -76.5751 N.am      9 UNK        -0.4218 
     28 C         -71.7639   27.6919  -76.2548 C.2       9 UNK         0.5020 
     29 O         -70.7661   28.3625  -75.9870 O.2       9 UNK        -0.5274 
     30 CA        -71.6542   26.1559  -76.2077 C.3       8 UNK         0.0270 
     31 CB        -71.6365   25.6739  -74.7478 C.3       8 UNK        -0.1976 
     32 N         -72.7319   25.4689  -76.9254 N.am      8 UNK        -0.4313 
     33 C         -72.8255   25.3897  -78.2601 C.2       8 UNK         0.5041 
     34 O         -71.9727   25.8261  -79.0342 O.2       8 UNK        -0.5577 
     35 CA        -74.1035   24.7483  -78.8283 C.3       7 UNK         0.0284 
     36 CB        -74.0144   23.2148  -78.7786 C.3       7 UNK        -0.1958 
     37 N         -75.3224   25.1952  -78.1466 N.am      7 UNK        -0.4454 
     38 C         -75.7670   26.4610  -78.1211 C.2       7 UNK         0.5089 
     39 O         -75.2040   27.4020  -78.6776 O.2       7 UNK        -0.5125 
     40 CA        -77.0324   26.7310  -77.2969 C.3       6 UNK         0.0408 
     41 CB        -78.2885   26.3328  -78.0861 C.3       6 UNK        -0.1791 
     42 N         -76.9801   26.0324  -76.0109 N.am      6 UNK        -0.4762 
     43 C         -76.2532   26.4536  -74.9650 C.2       6 UNK         0.5007 
     44 O         -75.6776   27.5423  -74.9314 O.2       6 UNK        -0.5032 
     45 CA        -76.1291   25.5140  -73.7512 C.3       5 UNK         0.0783 
     46 C46       -77.1083   25.9372  -72.6350 C.3       11 UNK        -0.0857 
     47 S47       -76.7312   25.1196  -71.0495 S.3       11 UNK        -0.2512 
     48 C48       -78.1288   25.6606  -70.0016 C.3       11 UNK         0.0225 
     49 N         -76.2809   24.1045  -74.1228 N.am      5 UNK        -0.4615 
     50 C         -75.3510   23.4041  -74.7856 C.2       4 UNK         0.5053 
     51 O         -74.2787   23.8800  -75.1545 O.2       4 UNK        -0.5105 
     52 CA        -75.6854   21.9465  -75.1452 C.3       4 UNK         0.0263 
     53 CB        -75.2899   21.0076  -73.9951 C.3       4 UNK        -0.1981 
     54 N         -77.0940   21.7359  -75.4875 N.am      4 UNK        -0.4224 
     55 C         -77.7443   22.3520  -76.4844 C.2       3 UNK         0.4895 
     56 O         -77.2105   23.1611  -77.2459 O.2       3 UNK        -0.5091 
     57 CA        -79.2507   22.0610  -76.6392 C.3       3 UNK         0.0250 
     58 CB        -79.7824   20.9512  -75.7025 C.3       3 UNK        -0.1996 
     59 N         -80.0613   23.2771  -76.4896 N.am      3 UNK        -0.4254 
     60 C         -80.0461   24.1276  -75.4527 C.2       2 UNK         0.5004 
     61 O         -79.3189   24.0039  -74.4629 O.2       2 UNK        -0.5226 
     62 CA        -81.0156   25.3118  -75.5275 C.3       2 UNK         0.0269 
     63 CB        -82.4001   24.9156  -74.9879 C.3       2 UNK        -0.1926 
     64 N         -80.4822   26.4052  -74.7183 N.am      2 UNK        -0.4687 
     65 C         -80.4595   27.6942  -75.0746 C.2       1 UNK         0.5165 
     66 O         -80.9316   28.1125  -76.1334 O.2       1 UNK        -0.5079 
     67 H67       -76.9671   31.7244  -75.8978 H         1 UNK         0.0900 
     68 H68       -76.3365   30.1729  -75.3535 H         1 UNK         0.0900 
     69 H69       -76.9282   30.3517  -77.0087 H         1 UNK         0.0900 
     70 H70       -77.7318   28.8398  -74.3172 H         1 UNK         0.2959 
     71 H71       -79.4520   28.0812  -73.2244 H         1 UNK         0.1079 
     72 H72       -80.2977   30.5068  -72.9938 H         1 UNK         0.0837 
     73 H73       -81.3933   30.1770  -74.3030 H         1 UNK         0.0837 
     74 H74       -82.0132   29.1294  -69.9349 H         1 UNK         0.0685 
     75 H75       -81.4007   30.5837  -70.6815 H         1 UNK         0.0685 
     76 H76       -80.5125   26.9247  -70.4218 H         1 UNK         0.1434 
     77 H77       -76.3642   27.7105  -69.7276 H         1 UNK         0.1329 
     78 H78       -79.0675   30.9567  -70.4896 H         1 UNK         0.1335 
     79 H79       -76.6031   31.2548  -70.7920 H         1 UNK         0.0680 
     80 H80       -76.5384   31.0021  -69.0639 H         1 UNK         0.0680 
     81 H81       -75.7055   29.4089  -72.3600 H         1 UNK         0.1032 
     82 H82       -74.6075   28.1413  -71.8940 H         1 UNK         0.1032 
     83 H83       -73.7292   30.9811  -72.6370 H         1 UNK         0.0461 
     84 H84       -71.7405   31.3523  -71.6355 H         1 UNK         0.3453 
     85 H85       -70.5006   30.1422  -71.4289 H         1 UNK         0.3453 
     86 H86       -74.3497   28.7746  -74.4077 H         1 UNK         0.2984 
     87 H87       -74.4159   29.6447  -76.8182 H         1 UNK         0.0554 
     88 H88       -72.9814   31.4306  -77.7508 H         1 UNK         0.0847 
     89 H89       -72.7666   29.9437  -78.6609 H         1 UNK         0.0847 
     90 H90       -71.5405   30.4571  -77.5024 H         1 UNK         0.0847 
     91 H91       -73.7015   27.5639  -76.7996 H         1 UNK         0.3141 
     92 H92       -70.7037   25.8801  -76.6693 H         1 UNK         0.0743 
     93 H93       -70.8143   26.1306  -74.1949 H         1 UNK         0.0784 
     94 H94       -72.5591   25.9342  -74.2271 H         1 UNK         0.0784 
     95 H95       -71.5089   24.5930  -74.6860 H         1 UNK         0.0784 
     96 H96       -73.4323   24.9992  -76.3528 H         1 UNK         0.3213 
     97 H97       -74.1866   25.0497  -79.8747 H         1 UNK         0.0855 
     98 H98       -73.9118   22.8489  -77.7572 H         1 UNK         0.0814 
     99 H99       -73.1504   22.8573  -79.3402 H         1 UNK         0.0814 
    100 H100      -74.8997   22.7502  -79.2136 H         1 UNK         0.0814 
    101 H101      -75.8885   24.4769  -77.7013 H         1 UNK         0.3105 
    102 H102      -77.0880   27.8053  -77.1113 H         1 UNK         0.0547 
    103 H103      -78.3401   25.2608  -78.2731 H         1 UNK         0.0837 
    104 H104      -78.3095   26.8308  -79.0564 H         1 UNK         0.0837 
    105 H105      -79.1935   26.6287  -77.5616 H         1 UNK         0.0837 
    106 H106      -77.3900   25.1080  -75.9717 H         1 UNK         0.3020 
    107 H107      -75.1132   25.6496  -73.3715 H         1 UNK         0.1245 
    108 H108      -78.1402   25.7208  -72.9099 H         1 UNK         0.0781 
    109 H109      -77.0500   27.0149  -72.4752 H         1 UNK         0.0781 
    110 H110      -77.9203   25.3913  -68.9655 H         1 UNK         0.0836 
    111 H111      -79.0140   25.0944  -70.2955 H         1 UNK         0.0836 
    112 H112      -77.1713   23.6741  -73.9030 H         1 UNK         0.3022 
    113 H113      -75.0926   21.6791  -76.0216 H         1 UNK         0.0747 
    114 H114      -75.4352   19.9620  -74.2673 H         1 UNK         0.0793 
    115 H115      -74.2367   21.1297  -73.7375 H         1 UNK         0.0793 
    116 H116      -75.8707   21.2053  -73.0931 H         1 UNK         0.0793 
    117 H117      -77.6170   21.1067  -74.8960 H         1 UNK         0.3047 
    118 H118      -79.3849   21.7198  -77.6668 H         1 UNK         0.0822 
    119 H119      -80.8326   20.7423  -75.9073 H         1 UNK         0.0807 
    120 H120      -79.7064   21.2259  -74.6495 H         1 UNK         0.0807 
    121 H121      -79.2422   20.0145  -75.8474 H         1 UNK         0.0807 
    122 H122      -80.6790   23.4775  -77.2640 H         1 UNK         0.2946 
    123 H123      -81.1111   25.6185  -76.5713 H         1 UNK         0.1144 
    124 H124      -83.0962   25.7534  -75.0343 H         1 UNK         0.0793 
    125 H125      -82.3480   24.5822  -73.9505 H         1 UNK         0.0793 
    126 H126      -82.8325   24.1022  -75.5720 H         1 UNK         0.0793 
    127 H127      -80.0423   26.1051  -73.8591 H         1 UNK         0.2896 
@<TRIPOS>BOND
     1    1    2 1    
     2    1   67 1    
     3    1   68 1    
     4    1   69 1    
     5    2    3 2    
     6    2    4 am   BACKBONE|DICT|INTERRES
     7    4    5 1    
     8    4   70 1    
     9    5    6 1    
    10    5   65 1    
    11    5   71 1    
    12    6    7 1    
    13    6   72 1    
    14    6   73 1    
    15    7    8 1    
    16    8    9 1    
    17    8   74 1    
    18    8   75 1    
    19    9   10 ar   
    20    9   14 ar   
    21   10   11 ar   
    22   10   76 1    
    23   11   12 ar   
    24   11   48 1    
    25   12   13 ar   
    26   12   77 1    
    27   13   14 ar   
    28   13   15 1    
    29   14   78 1    
    30   15   16 1    
    31   15   79 1    
    32   15   80 1    
    33   16   17 1    
    34   17   18 1    
    35   17   81 1    
    36   17   82 1    
    37   18   19 1    
    38   18   22 1    
    39   18   83 1    
    40   19   20 am   BACKBONE|DICT|INTERRES
    41   19   21 2    
    42   20   84 1    
    43   20   85 1    
    44   22   23 am   BACKBONE|DICT|INTERRES
    45   22   86 1    
    46   23   24 2    
    47   23   25 1    
    48   25   26 1    
    49   25   27 1    
    50   25   87 1    
    51   26   88 1    
    52   26   89 1    
    53   26   90 1    
    54   27   28 am   BACKBONE|DICT|INTERRES
    55   27   91 1    
    56   28   29 2    
    57   28   30 1    
    58   30   31 1    
    59   30   32 1    
    60   30   92 1    
    61   31   93 1    
    62   31   94 1    
    63   31   95 1    
    64   32   33 am   BACKBONE|DICT|INTERRES
    65   32   96 1    
    66   33   34 2    
    67   33   35 1    
    68   35   36 1    
    69   35   37 1    
    70   35   97 1    
    71   36   98 1    
    72   36   99 1    
    73   36  100 1    
    74   37   38 am   BACKBONE|DICT|INTERRES
    75   37  101 1    
    76   38   39 2    
    77   38   40 1    
    78   40   41 1    
    79   40   42 1    
    80   40  102 1    
    81   41  103 1    
    82   41  104 1    
    83   41  105 1    
    84   42   43 am   BACKBONE|DICT|INTERRES
    85   42  106 1    
    86   43   44 2    
    87   43   45 1    
    88   45   46 1    
    89   45   49 1    
    90   45  107 1    
    91   46   47 1    
    92   46  108 1    
    93   46  109 1    
    94   47   48 1    
    95   48  110 1    
    96   48  111 1    
    97   49   50 am   BACKBONE|DICT|INTERRES
    98   49  112 1    
    99   50   51 2    
   100   50   52 1    
   101   52   53 1    
   102   52   54 1    
   103   52  113 1    
   104   53  114 1    
   105   53  115 1    
   106   53  116 1    
   107   54   55 am   BACKBONE|DICT|INTERRES
   108   54  117 1    
   109   55   56 2    
   110   55   57 1    
   111   57   58 1    
   112   57   59 1    
   113   57  118 1    
   114   58  119 1    
   115   58  120 1    
   116   58  121 1    
   117   59   60 am   BACKBONE|DICT|INTERRES
   118   59  122 1    
   119   60   61 2    
   120   60   62 1    
   121   62   63 1    
   122   62   64 1    
   123   62  123 1    
   124   63  124 1    
   125   63  125 1    
   126   63  126 1    
   127   64   65 am   BACKBONE|DICT|INTERRES
   128   64  127 1    
   129   65   66 2    
@<TRIPOS>SUBSTRUCTURE
     1 UNK         1 GROUP             0       ****    0 ROOT    
