@<TRIPOS>MOLECULE
3R135
127   129    1
SMALL
USER_CHARGES


@<TRIPOS>ATOM
      1 CA        -77.5904   28.9205  -75.2171 C.3       0 UNK        -0.1998 
      2 C         -78.5409   27.9091  -74.5989 C.2       0 UNK         0.4909 
      3 O         -78.2559   26.7112  -74.6169 O.2       0 UNK        -0.5240 
      4 N         -79.6718   28.3725  -74.0512 N.am      1 UNK        -0.4739 
      5 CA        -80.6782   27.5246  -73.3983 C.3       1 UNK         0.0864 
      6 C6        -81.7722   28.3383  -72.6668 C.3       11 UNK        -0.0881 
      7 S7        -81.1198   29.6361  -71.5618 S.3       11 UNK        -0.2682 
      8 C8        -80.4276   28.6659  -70.1840 C.3       11 UNK         0.0289 
      9 C9        -78.9146   28.5146  -70.2918 C.ar      11 UNK        -0.0687 
     10 C10       -78.3304   27.2606  -70.4952 C.ar      11 UNK        -0.0823 
     11 C11       -76.9388   27.1143  -70.5277 C.ar      11 UNK        -0.0830 
     12 C12       -76.1316   28.2434  -70.3407 C.ar      11 UNK        -0.1021 
     13 C13       -76.7011   29.5082  -70.1537 C.ar      11 UNK        -0.0753 
     14 C14       -78.0927   29.6330  -70.1294 C.ar      11 UNK        -0.0933 
     15 C15       -75.8320   30.7429  -69.9292 C.3       11 UNK         0.0166 
     16 S16       -74.4317   30.8796  -71.0871 S.3       11 UNK        -0.2615 
     17 C17       -75.2945   30.8591  -72.6982 C.3       11 UNK        -0.0865 
     18 CA        -74.4007   31.3195  -73.8843 C.3       10 UNK         0.0862 
     19 C         -74.1865   32.8592  -73.9485 C.2       10 UNK         0.5551 
     20 N         -73.0042   33.3483  -74.3061 N.am      10 UNK        -0.7319 
     21 O         -75.1115   33.6274  -73.6962 O.2       10 UNK        -0.5018 
     22 N         -73.1530   30.5437  -73.9595 N.am      10 UNK        -0.4509 
     23 C         -73.0434   29.3251  -74.4911 C.2       10 UNK         0.4899 
     24 O         -73.9552   28.7393  -75.0776 O.2       10 UNK        -0.4839 
     25 CA        -71.6931   28.6272  -74.3019 C.3       9 UNK         0.0222 
     26 CB        -71.5173   28.1570  -72.8429 C.3       9 UNK        -0.1966 
     27 N         -71.6372   27.4924  -75.2166 N.am      9 UNK        -0.4218 
     28 C         -70.5464   26.8016  -75.5624 C.2       9 UNK         0.5020 
     29 O         -69.4182   27.0321  -75.1243 O.2       9 UNK        -0.5274 
     30 CA        -70.7403   25.6557  -76.5690 C.3       8 UNK         0.0270 
     31 CB        -70.9238   24.3197  -75.8299 C.3       8 UNK        -0.1976 
     32 N         -71.8668   25.8766  -77.4845 N.am      8 UNK        -0.4313 
     33 C         -71.8184   26.7137  -78.5333 C.2       8 UNK         0.5041 
     34 O         -70.8312   27.4012  -78.8000 O.2       8 UNK        -0.5577 
     35 CA        -73.0387   26.7950  -79.4689 C.3       7 UNK         0.0284 
     36 CB        -72.7062   26.1673  -80.8339 C.3       7 UNK        -0.1958 
     37 N         -74.2253   26.1313  -78.9287 N.am      7 UNK        -0.4454 
     38 C         -75.2011   26.7417  -78.2451 C.2       7 UNK         0.5089 
     39 O         -75.2243   27.9499  -78.0121 O.2       7 UNK        -0.5125 
     40 CA        -76.3576   25.8578  -77.7398 C.3       6 UNK         0.0408 
     41 CB        -76.5038   24.5189  -78.4975 C.3       6 UNK        -0.1791 
     42 N         -76.2834   25.6148  -76.2974 N.am      6 UNK        -0.4762 
     43 C         -75.2604   25.0832  -75.6101 C.2       6 UNK         0.5007 
     44 O         -74.1894   24.7599  -76.1257 O.2       6 UNK        -0.5032 
     45 CA        -75.4783   24.8202  -74.1084 C.3       5 UNK         0.0783 
     46 C46       -75.1286   26.0649  -73.2542 C.3       11 UNK        -0.0857 
     47 S47       -74.7254   25.6319  -71.5302 S.3       11 UNK        -0.2512 
     48 C48       -76.3452   25.7151  -70.6886 C.3       11 UNK         0.0225 
     49 N         -76.8575   24.3763  -73.8893 N.am      5 UNK        -0.4615 
     50 C         -77.2162   23.1482  -73.5039 C.2       4 UNK         0.5053 
     51 O         -76.4197   22.2540  -73.2167 O.2       4 UNK        -0.5105 
     52 CA        -78.7265   22.8669  -73.4238 C.3       4 UNK         0.0263 
     53 CB        -79.3712   23.6351  -72.2590 C.3       4 UNK        -0.1981 
     54 N         -79.4510   23.1457  -74.6704 N.am      4 UNK        -0.4224 
     55 C         -79.2478   22.4912  -75.8268 C.2       3 UNK         0.4895 
     56 O         -78.3584   21.6544  -75.9858 O.2       3 UNK        -0.5091 
     57 CA        -80.2143   22.7488  -76.9990 C.3       3 UNK         0.0250 
     58 CB        -81.0492   21.4889  -77.2890 C.3       3 UNK        -0.1996 
     59 N         -81.1307   23.8658  -76.7708 N.am      3 UNK        -0.4254 
     60 C         -80.8871   25.1339  -77.1199 C.2       2 UNK         0.5004 
     61 O         -79.8558   25.5068  -77.6783 O.2       2 UNK        -0.5226 
     62 CA        -81.9668   26.1765  -76.7787 C.3       2 UNK         0.0269 
     63 CB        -83.3868   25.5911  -76.5951 C.3       2 UNK        -0.1926 
     64 N         -81.5607   26.9686  -75.6150 N.am      2 UNK        -0.4687 
     65 C         -81.3113   26.5148  -74.3764 C.2       1 UNK         0.5165 
     66 O         -81.5079   25.3542  -74.0123 O.2       1 UNK        -0.5079 
     67 H67       -77.5840   28.8151  -76.3017 H         1 UNK         0.0900 
     68 H68       -76.5776   28.7454  -74.8589 H         1 UNK         0.0900 
     69 H69       -77.8662   29.9455  -74.9706 H         1 UNK         0.0900 
     70 H70       -79.8548   29.3657  -74.0299 H         1 UNK         0.2959 
     71 H71       -80.1511   26.9338  -72.6495 H         1 UNK         0.1079 
     72 H72       -82.4253   28.8310  -73.3898 H         1 UNK         0.0837 
     73 H73       -82.4166   27.6759  -72.0851 H         1 UNK         0.0837 
     74 H74       -80.6608   29.1784  -69.2496 H         1 UNK         0.0685 
     75 H75       -80.9182   27.6933  -70.1240 H         1 UNK         0.0685 
     76 H76       -78.9617   26.3892  -70.5986 H         1 UNK         0.1434 
     77 H77       -75.0554   28.1421  -70.3325 H         1 UNK         0.1329 
     78 H78       -78.5441   30.6020  -69.9645 H         1 UNK         0.1335 
     79 H79       -76.4287   31.6534  -70.0054 H         1 UNK         0.0680 
     80 H80       -75.4419   30.7141  -68.9111 H         1 UNK         0.0680 
     81 H81       -76.2035   31.4602  -72.6356 H         1 UNK         0.1032 
     82 H82       -75.6328   29.8377  -72.8773 H         1 UNK         0.1032 
     83 H83       -74.9633   31.1124  -74.7968 H         1 UNK         0.0461 
     84 H84       -72.8826   34.3481  -74.3500 H         1 UNK         0.3453 
     85 H85       -72.2506   32.7404  -74.5824 H         1 UNK         0.3453 
     86 H86       -72.3670   30.9426  -73.4667 H         1 UNK         0.2984 
     87 H87       -70.9002   29.3308  -74.5633 H         1 UNK         0.0554 
     88 H88       -70.5441   27.6925  -72.6852 H         1 UNK         0.0847 
     89 H89       -72.2808   27.4336  -72.5566 H         1 UNK         0.0847 
     90 H90       -71.5875   28.9928  -72.1457 H         1 UNK         0.0847 
     91 H91       -72.5259   27.2735  -75.6518 H         1 UNK         0.3141 
     92 H92       -69.8270   25.5831  -77.1637 H         1 UNK         0.0743 
     93 H93       -70.0455   24.0882  -75.2259 H         1 UNK         0.0784 
     94 H94       -71.7806   24.3418  -75.1560 H         1 UNK         0.0784 
     95 H95       -71.0644   23.4936  -76.5271 H         1 UNK         0.0784 
     96 H96       -72.7308   25.3846  -77.2702 H         1 UNK         0.3213 
     97 H97       -73.2511   27.8545  -79.6290 H         1 UNK         0.0855 
     98 H98       -71.8473   26.6597  -81.2923 H         1 UNK         0.0814 
     99 H99       -73.5404   26.2643  -81.5290 H         1 UNK         0.0814 
    100 H100      -72.4639   25.1076  -80.7444 H         1 UNK         0.0814 
    101 H101      -74.2862   25.1312  -79.0557 H         1 UNK         0.3105 
    102 H102      -77.2715   26.4295  -77.9061 H         1 UNK         0.0547 
    103 H103      -76.5792   24.6801  -79.5737 H         1 UNK         0.0837 
    104 H104      -75.6699   23.8403  -78.3159 H         1 UNK         0.0837 
    105 H105      -77.4130   24.0029  -78.1908 H         1 UNK         0.0837 
    106 H106      -77.0947   25.9271  -75.7676 H         1 UNK         0.3020 
    107 H107      -74.7802   24.0214  -73.8468 H         1 UNK         0.1245 
    108 H108      -75.9230   26.8117  -73.2773 H         1 UNK         0.0781 
    109 H109      -74.2417   26.5579  -73.6520 H         1 UNK         0.0781 
    110 H110      -76.2310   25.2830  -69.6938 H         1 UNK         0.0836 
    111 H111      -77.0428   25.0698  -71.2187 H         1 UNK         0.0836 
    112 H112      -77.5765   25.0633  -74.1037 H         1 UNK         0.3022 
    113 H113      -78.8452   21.8009  -73.2182 H         1 UNK         0.0747 
    114 H114      -80.4263   23.3822  -72.1524 H         1 UNK         0.0793 
    115 H115      -78.8842   23.3929  -71.3136 H         1 UNK         0.0793 
    116 H116      -79.2993   24.7128  -72.4009 H         1 UNK         0.0793 
    117 H117      -80.1942   23.8344  -74.6191 H         1 UNK         0.3047 
    118 H118      -79.6043   22.9547  -77.8809 H         1 UNK         0.0822 
    119 H119      -81.7008   21.6346  -78.1509 H         1 UNK         0.0807 
    120 H120      -81.6734   21.2125  -76.4383 H         1 UNK         0.0807 
    121 H121      -80.4077   20.6354  -77.5130 H         1 UNK         0.0807 
    122 H122      -81.9909   23.6600  -76.2828 H         1 UNK         0.2946 
    123 H123      -82.0035   26.8607  -77.6284 H         1 UNK         0.1144 
    124 H124      -83.6891   25.0174  -77.4724 H         1 UNK         0.0793 
    125 H125      -84.1200   26.3877  -76.4684 H         1 UNK         0.0793 
    126 H126      -83.4677   24.9350  -75.7284 H         1 UNK         0.0793 
    127 H127      -81.3117   27.9284  -75.8098 H         1 UNK         0.2896 
@<TRIPOS>BOND
     1    1    2 1    
     2    1   67 1    
     3    1   68 1    
     4    1   69 1    
     5    2    3 2    
     6    2    4 am   BACKBONE|DICT|INTERRES
     7    4    5 1    
     8    4   70 1    
     9    5    6 1    
    10    5   65 1    
    11    5   71 1    
    12    6    7 1    
    13    6   72 1    
    14    6   73 1    
    15    7    8 1    
    16    8    9 1    
    17    8   74 1    
    18    8   75 1    
    19    9   10 ar   
    20    9   14 ar   
    21   10   11 ar   
    22   10   76 1    
    23   11   12 ar   
    24   11   48 1    
    25   12   13 ar   
    26   12   77 1    
    27   13   14 ar   
    28   13   15 1    
    29   14   78 1    
    30   15   16 1    
    31   15   79 1    
    32   15   80 1    
    33   16   17 1    
    34   17   18 1    
    35   17   81 1    
    36   17   82 1    
    37   18   19 1    
    38   18   22 1    
    39   18   83 1    
    40   19   20 am   BACKBONE|DICT|INTERRES
    41   19   21 2    
    42   20   84 1    
    43   20   85 1    
    44   22   23 am   BACKBONE|DICT|INTERRES
    45   22   86 1    
    46   23   24 2    
    47   23   25 1    
    48   25   26 1    
    49   25   27 1    
    50   25   87 1    
    51   26   88 1    
    52   26   89 1    
    53   26   90 1    
    54   27   28 am   BACKBONE|DICT|INTERRES
    55   27   91 1    
    56   28   29 2    
    57   28   30 1    
    58   30   31 1    
    59   30   32 1    
    60   30   92 1    
    61   31   93 1    
    62   31   94 1    
    63   31   95 1    
    64   32   33 am   BACKBONE|DICT|INTERRES
    65   32   96 1    
    66   33   34 2    
    67   33   35 1    
    68   35   36 1    
    69   35   37 1    
    70   35   97 1    
    71   36   98 1    
    72   36   99 1    
    73   36  100 1    
    74   37   38 am   BACKBONE|DICT|INTERRES
    75   37  101 1    
    76   38   39 2    
    77   38   40 1    
    78   40   41 1    
    79   40   42 1    
    80   40  102 1    
    81   41  103 1    
    82   41  104 1    
    83   41  105 1    
    84   42   43 am   BACKBONE|DICT|INTERRES
    85   42  106 1    
    86   43   44 2    
    87   43   45 1    
    88   45   46 1    
    89   45   49 1    
    90   45  107 1    
    91   46   47 1    
    92   46  108 1    
    93   46  109 1    
    94   47   48 1    
    95   48  110 1    
    96   48  111 1    
    97   49   50 am   BACKBONE|DICT|INTERRES
    98   49  112 1    
    99   50   51 2    
   100   50   52 1    
   101   52   53 1    
   102   52   54 1    
   103   52  113 1    
   104   53  114 1    
   105   53  115 1    
   106   53  116 1    
   107   54   55 am   BACKBONE|DICT|INTERRES
   108   54  117 1    
   109   55   56 2    
   110   55   57 1    
   111   57   58 1    
   112   57   59 1    
   113   57  118 1    
   114   58  119 1    
   115   58  120 1    
   116   58  121 1    
   117   59   60 am   BACKBONE|DICT|INTERRES
   118   59  122 1    
   119   60   61 2    
   120   60   62 1    
   121   62   63 1    
   122   62   64 1    
   123   62  123 1    
   124   63  124 1    
   125   63  125 1    
   126   63  126 1    
   127   64   65 am   BACKBONE|DICT|INTERRES
   128   64  127 1    
   129   65   66 2    
@<TRIPOS>SUBSTRUCTURE
     1 UNK         1 GROUP             0       ****    0 ROOT    
