@<TRIPOS>MOLECULE
3R135
127   129    1
SMALL
USER_CHARGES


@<TRIPOS>ATOM
      1 CA        -82.9135   29.5293  -75.1410 C.3       0 UNK        -0.1998 
      2 C         -81.7927   28.5034  -75.0731 C.2       0 UNK         0.4909 
      3 O         -82.0697   27.3197  -74.8845 O.2       0 UNK        -0.5240 
      4 N         -80.5414   28.9556  -75.2538 N.am      1 UNK        -0.4739 
      5 CA        -79.2720   28.2092  -75.1677 C.3       1 UNK         0.0864 
      6 C6        -78.7081   28.1213  -73.7223 C.3       11 UNK        -0.0881 
      7 S7        -79.6128   27.0187  -72.5762 S.3       11 UNK        -0.2682 
      8 C8        -79.4507   27.8999  -70.9908 C.3       11 UNK         0.0289 
      9 C9        -78.0079   28.2751  -70.6757 C.ar      11 UNK        -0.0687 
     10 C10       -77.0238   27.2881  -70.5638 C.ar      11 UNK        -0.0823 
     11 C11       -75.6890   27.6329  -70.3150 C.ar      11 UNK        -0.0830 
     12 C12       -75.3630   28.9796  -70.1194 C.ar      11 UNK        -0.1021 
     13 C13       -76.3375   29.9783  -70.2326 C.ar      11 UNK        -0.0753 
     14 C14       -77.6574   29.6172  -70.5116 C.ar      11 UNK        -0.0933 
     15 C15       -75.9726   31.4498  -70.0732 C.3       11 UNK         0.0166 
     16 S16       -74.6305   31.9780  -71.1891 S.3       11 UNK        -0.2615 
     17 C17       -75.3233   31.6515  -72.8540 C.3       11 UNK        -0.0865 
     18 CA        -75.0593   30.2071  -73.3778 C.3       10 UNK         0.0862 
     19 C         -75.5882   29.9565  -74.8203 C.2       10 UNK         0.5551 
     20 N         -75.0096   29.0220  -75.5627 N.am      10 UNK        -0.7319 
     21 O         -76.5519   30.5828  -75.2539 O.2       10 UNK        -0.5018 
     22 N         -73.6854   29.7349  -73.1459 N.am      10 UNK        -0.4509 
     23 C         -72.5640   30.2240  -73.6893 C.2       10 UNK         0.4899 
     24 O         -72.5190   31.1961  -74.4443 O.2       10 UNK        -0.4839 
     25 CA        -71.2584   29.4799  -73.3418 C.3       9 UNK         0.0222 
     26 CB        -71.3268   28.7027  -72.0069 C.3       9 UNK        -0.1966 
     27 N         -70.8101   28.5840  -74.4165 N.am      9 UNK        -0.4218 
     28 C         -71.5364   27.6481  -75.0459 C.2       9 UNK         0.5020 
     29 O         -72.7328   27.4394  -74.8378 O.2       9 UNK        -0.5274 
     30 CA        -70.7859   26.7563  -76.0390 C.3       8 UNK         0.0270 
     31 CB        -70.2949   25.4812  -75.3340 C.3       8 UNK        -0.1976 
     32 N         -71.6886   26.3766  -77.1233 N.am      8 UNK        -0.4313 
     33 C         -71.6805   26.9253  -78.3446 C.2       8 UNK         0.5041 
     34 O         -70.8706   27.7831  -78.7013 O.2       8 UNK        -0.5577 
     35 CA        -72.7267   26.4334  -79.3604 C.3       7 UNK         0.0284 
     36 CB        -72.0778   25.4818  -80.3796 C.3       7 UNK        -0.1958 
     37 N         -73.8681   25.7579  -78.7425 N.am      7 UNK        -0.4454 
     38 C         -74.9004   26.3812  -78.1612 C.2       7 UNK         0.5089 
     39 O         -75.0164   27.6053  -78.0970 O.2       7 UNK        -0.5125 
     40 CA        -76.0180   25.4931  -77.5873 C.3       6 UNK         0.0408 
     41 CB        -76.1338   24.1132  -78.2711 C.3       6 UNK        -0.1791 
     42 N         -75.9539   25.3264  -76.1327 N.am      6 UNK        -0.4762 
     43 C         -74.9315   24.8686  -75.3941 C.2       6 UNK         0.5007 
     44 O         -73.8129   24.6255  -75.8527 O.2       6 UNK        -0.5032 
     45 CA        -75.2258   24.5404  -73.9109 C.3       5 UNK         0.0783 
     46 C46       -74.6946   25.6172  -72.9291 C.3       11 UNK        -0.0857 
     47 S47       -74.8603   25.0589  -71.1945 S.3       11 UNK        -0.2512 
     48 C48       -74.5803   26.5834  -70.2253 C.3       11 UNK         0.0225 
     49 N         -76.6350   24.2185  -73.6444 N.am      5 UNK        -0.4615 
     50 C         -77.2616   23.1078  -74.0513 C.2       4 UNK         0.5053 
     51 O         -76.7831   22.2998  -74.8474 O.2       4 UNK        -0.5105 
     52 CA        -78.6247   22.8120  -73.4146 C.3       4 UNK         0.0263 
     53 CB        -78.7235   23.2507  -71.9377 C.3       4 UNK        -0.1981 
     54 N         -79.7049   23.4089  -74.1972 N.am      4 UNK        -0.4224 
     55 C         -80.9226   22.8598  -74.3267 C.2       3 UNK         0.4895 
     56 O         -81.2389   21.7845  -73.8140 O.2       3 UNK        -0.5091 
     57 CA        -81.9915   23.6157  -75.1398 C.3       3 UNK         0.0250 
     58 CB        -83.0190   24.2586  -74.1939 C.3       3 UNK        -0.1996 
     59 N         -81.4470   24.6448  -76.0251 N.am      3 UNK        -0.4254 
     60 C         -80.7635   24.3954  -77.1521 C.2       2 UNK         0.5004 
     61 O         -80.5982   23.2647  -77.6106 O.2       2 UNK        -0.5226 
     62 CA        -80.1375   25.5961  -77.8905 C.3       2 UNK         0.0269 
     63 CB        -80.9737   25.9615  -79.1274 C.3       2 UNK        -0.1926 
     64 N         -79.9570   26.7975  -77.0666 N.am      2 UNK        -0.4687 
     65 C         -79.2420   26.8663  -75.9338 C.2       1 UNK         0.5165 
     66 O         -78.6058   25.9104  -75.4861 O.2       1 UNK        -0.5079 
     67 H67       -82.5379   30.5354  -75.3267 H         1 UNK         0.0900 
     68 H68       -83.6083   29.2727  -75.9402 H         1 UNK         0.0900 
     69 H69       -83.4648   29.5412  -74.2012 H         1 UNK         0.0900 
     70 H70       -80.4235   29.9428  -75.4364 H         1 UNK         0.2959 
     71 H71       -78.5634   28.8265  -75.7221 H         1 UNK         0.1079 
     72 H72       -78.6770   29.1257  -73.2982 H         1 UNK         0.0837 
     73 H73       -77.6690   27.7876  -73.7479 H         1 UNK         0.0837 
     74 H74       -80.0871   28.7857  -71.0198 H         1 UNK         0.0685 
     75 H75       -79.8390   27.2664  -70.1924 H         1 UNK         0.0685 
     76 H76       -77.3053   26.2526  -70.6907 H         1 UNK         0.1434 
     77 H77       -74.3405   29.2611  -69.9071 H         1 UNK         0.1329 
     78 H78       -78.4144   30.3838  -70.6057 H         1 UNK         0.1335 
     79 H79       -75.6599   31.6234  -69.0428 H         1 UNK         0.0680 
     80 H80       -76.8400   32.0895  -70.2434 H         1 UNK         0.0680 
     81 H81       -74.8881   32.3786  -73.5415 H         1 UNK         0.1032 
     82 H82       -76.3947   31.8589  -72.8386 H         1 UNK         0.1032 
     83 H83       -75.6789   29.5373  -72.7864 H         1 UNK         0.0461 
     84 H84       -74.2115   28.5033  -75.2034 H         1 UNK         0.3453 
     85 H85       -75.3255   28.8283  -76.5041 H         1 UNK         0.3453 
     86 H86       -73.6069   28.9027  -72.5829 H         1 UNK         0.2984 
     87 H87       -70.4907   30.2477  -73.2338 H         1 UNK         0.0554 
     88 H88       -71.6993   29.3334  -71.1980 H         1 UNK         0.0847 
     89 H89       -70.3374   28.3559  -71.7088 H         1 UNK         0.0847 
     90 H90       -71.9701   27.8252  -72.0737 H         1 UNK         0.0847 
     91 H91       -69.8423   28.6899  -74.6879 H         1 UNK         0.3141 
     92 H92       -69.9199   27.2965  -76.4271 H         1 UNK         0.0743 
     93 H93       -71.1225   24.9139  -74.9050 H         1 UNK         0.0784 
     94 H94       -69.7638   24.8265  -76.0251 H         1 UNK         0.0784 
     95 H95       -69.6082   25.7217  -74.5213 H         1 UNK         0.0784 
     96 H96       -72.4512   25.7575  -76.8605 H         1 UNK         0.3213 
     97 H97       -73.0921   27.3104  -79.8996 H         1 UNK         0.0855 
     98 H98       -71.6911   24.5805  -79.9022 H         1 UNK         0.0814 
     99 H99       -71.2416   25.9652  -80.8870 H         1 UNK         0.0814 
    100 H100      -72.7883   25.1781  -81.1486 H         1 UNK         0.0814 
    101 H101      -73.8471   24.7486  -78.7221 H         1 UNK         0.3105 
    102 H102      -76.9453   26.0291  -77.7881 H         1 UNK         0.0547 
    103 H103      -76.1938   24.2119  -79.3559 H         1 UNK         0.0837 
    104 H104      -75.2900   23.4626  -78.0397 H         1 UNK         0.0837 
    105 H105      -77.0376   23.5964  -77.9470 H         1 UNK         0.0837 
    106 H106      -76.8390   25.4913  -75.6567 H         1 UNK         0.3020 
    107 H107      -74.6601   23.6268  -73.7122 H         1 UNK         0.1245 
    108 H108      -75.2183   26.5649  -73.0682 H         1 UNK         0.0781 
    109 H109      -73.6366   25.8089  -73.1099 H         1 UNK         0.0781 
    110 H110      -73.6266   27.0140  -70.5311 H         1 UNK         0.0836 
    111 H111      -74.4657   26.3033  -69.1774 H         1 UNK         0.0836 
    112 H112      -77.1139   24.8332  -73.0035 H         1 UNK         0.3022 
    113 H113      -78.7252   21.7245  -73.4378 H         1 UNK         0.0747 
    114 H114      -79.6298   22.8605  -71.4744 H         1 UNK         0.0793 
    115 H115      -77.8793   22.8743  -71.3581 H         1 UNK         0.0793 
    116 H116      -78.7419   24.3340  -71.8284 H         1 UNK         0.0793 
    117 H117      -79.4906   24.2840  -74.6684 H         1 UNK         0.3047 
    118 H118      -82.5117   22.8797  -75.7566 H         1 UNK         0.0822 
    119 H119      -83.8065   24.7690  -74.7486 H         1 UNK         0.0807 
    120 H120      -82.5508   24.9872  -73.5303 H         1 UNK         0.0807 
    121 H121      -83.4985   23.5065  -73.5660 H         1 UNK         0.0807 
    122 H122      -81.5469   25.6077  -75.7112 H         1 UNK         0.2946 
    123 H123      -79.1509   25.2738  -78.2272 H         1 UNK         0.1144 
    124 H124      -81.1058   25.0971  -79.7799 H         1 UNK         0.0793 
    125 H125      -80.4904   26.7393  -79.7189 H         1 UNK         0.0793 
    126 H126      -81.9675   26.3159  -78.8508 H         1 UNK         0.0793 
    127 H127      -80.4724   27.6194  -77.3472 H         1 UNK         0.2896 
@<TRIPOS>BOND
     1    1    2 1    
     2    1   67 1    
     3    1   68 1    
     4    1   69 1    
     5    2    3 2    
     6    2    4 am   BACKBONE|DICT|INTERRES
     7    4    5 1    
     8    4   70 1    
     9    5    6 1    
    10    5   65 1    
    11    5   71 1    
    12    6    7 1    
    13    6   72 1    
    14    6   73 1    
    15    7    8 1    
    16    8    9 1    
    17    8   74 1    
    18    8   75 1    
    19    9   10 ar   
    20    9   14 ar   
    21   10   11 ar   
    22   10   76 1    
    23   11   12 ar   
    24   11   48 1    
    25   12   13 ar   
    26   12   77 1    
    27   13   14 ar   
    28   13   15 1    
    29   14   78 1    
    30   15   16 1    
    31   15   79 1    
    32   15   80 1    
    33   16   17 1    
    34   17   18 1    
    35   17   81 1    
    36   17   82 1    
    37   18   19 1    
    38   18   22 1    
    39   18   83 1    
    40   19   20 am   BACKBONE|DICT|INTERRES
    41   19   21 2    
    42   20   84 1    
    43   20   85 1    
    44   22   23 am   BACKBONE|DICT|INTERRES
    45   22   86 1    
    46   23   24 2    
    47   23   25 1    
    48   25   26 1    
    49   25   27 1    
    50   25   87 1    
    51   26   88 1    
    52   26   89 1    
    53   26   90 1    
    54   27   28 am   BACKBONE|DICT|INTERRES
    55   27   91 1    
    56   28   29 2    
    57   28   30 1    
    58   30   31 1    
    59   30   32 1    
    60   30   92 1    
    61   31   93 1    
    62   31   94 1    
    63   31   95 1    
    64   32   33 am   BACKBONE|DICT|INTERRES
    65   32   96 1    
    66   33   34 2    
    67   33   35 1    
    68   35   36 1    
    69   35   37 1    
    70   35   97 1    
    71   36   98 1    
    72   36   99 1    
    73   36  100 1    
    74   37   38 am   BACKBONE|DICT|INTERRES
    75   37  101 1    
    76   38   39 2    
    77   38   40 1    
    78   40   41 1    
    79   40   42 1    
    80   40  102 1    
    81   41  103 1    
    82   41  104 1    
    83   41  105 1    
    84   42   43 am   BACKBONE|DICT|INTERRES
    85   42  106 1    
    86   43   44 2    
    87   43   45 1    
    88   45   46 1    
    89   45   49 1    
    90   45  107 1    
    91   46   47 1    
    92   46  108 1    
    93   46  109 1    
    94   47   48 1    
    95   48  110 1    
    96   48  111 1    
    97   49   50 am   BACKBONE|DICT|INTERRES
    98   49  112 1    
    99   50   51 2    
   100   50   52 1    
   101   52   53 1    
   102   52   54 1    
   103   52  113 1    
   104   53  114 1    
   105   53  115 1    
   106   53  116 1    
   107   54   55 am   BACKBONE|DICT|INTERRES
   108   54  117 1    
   109   55   56 2    
   110   55   57 1    
   111   57   58 1    
   112   57   59 1    
   113   57  118 1    
   114   58  119 1    
   115   58  120 1    
   116   58  121 1    
   117   59   60 am   BACKBONE|DICT|INTERRES
   118   59  122 1    
   119   60   61 2    
   120   60   62 1    
   121   62   63 1    
   122   62   64 1    
   123   62  123 1    
   124   63  124 1    
   125   63  125 1    
   126   63  126 1    
   127   64   65 am   BACKBONE|DICT|INTERRES
   128   64  127 1    
   129   65   66 2    
@<TRIPOS>SUBSTRUCTURE
     1 UNK         1 GROUP             0       ****    0 ROOT    
