@<TRIPOS>MOLECULE
3R135
127   129    1
SMALL
USER_CHARGES


@<TRIPOS>ATOM
      1 CA        -85.2161   29.2288  -73.5576 C.3       0 UNK        -0.1998 
      2 C         -84.9274   27.7558  -73.8352 C.2       0 UNK         0.4909 
      3 O         -85.5798   26.8983  -73.2422 O.2       0 UNK        -0.5240 
      4 N         -83.9877   27.3961  -74.7185 N.am      1 UNK        -0.4739 
      5 CA        -83.1259   28.2622  -75.5357 C.3       1 UNK         0.0864 
      6 C6        -82.0977   29.1003  -74.7241 C.3       11 UNK        -0.0881 
      7 S7        -80.9717   28.1194  -73.6733 S.3       11 UNK        -0.2682 
      8 C8        -80.2384   29.4434  -72.6576 C.3       11 UNK         0.0289 
      9 C9        -78.8222   29.1072  -72.2067 C.ar      11 UNK        -0.0687 
     10 C10       -78.5955   28.0446  -71.3266 C.ar      11 UNK        -0.0823 
     11 C11       -77.2991   27.7451  -70.8991 C.ar      11 UNK        -0.0830 
     12 C12       -76.2328   28.5280  -71.3403 C.ar      11 UNK        -0.1021 
     13 C13       -76.4324   29.5775  -72.2402 C.ar      11 UNK        -0.0753 
     14 C14       -77.7356   29.8627  -72.6656 C.ar      11 UNK        -0.0933 
     15 C15       -75.2528   30.3614  -72.8157 C.3       11 UNK         0.0166 
     16 S16       -74.0313   30.9233  -71.5811 S.3       11 UNK        -0.2615 
     17 C17       -72.8161   29.5533  -71.5218 C.3       11 UNK        -0.0865 
     18 CA        -71.6337   29.7463  -72.5080 C.3       10 UNK         0.0862 
     19 C         -70.3974   28.8786  -72.1203 C.2       10 UNK         0.5551 
     20 N         -69.7655   28.1512  -73.0348 N.am      10 UNK        -0.7319 
     21 O         -69.9880   28.8764  -70.9620 O.2       10 UNK        -0.5018 
     22 N         -72.0742   29.5388  -73.8956 N.am      10 UNK        -0.4509 
     23 C         -71.6268   30.2252  -74.9525 C.2       10 UNK         0.4899 
     24 O         -70.8420   31.1721  -74.8739 O.2       10 UNK        -0.4839 
     25 CA        -72.1377   29.7565  -76.3290 C.3       9 UNK         0.0222 
     26 CB        -71.3675   30.3925  -77.5055 C.3       9 UNK        -0.1966 
     27 N         -72.1731   28.2942  -76.4691 N.am      9 UNK        -0.4218 
     28 C         -71.1459   27.4381  -76.3372 C.2       9 UNK         0.5020 
     29 O         -70.0059   27.7930  -76.0337 O.2       9 UNK        -0.5274 
     30 CA        -71.4111   25.9309  -76.5387 C.3       8 UNK         0.0270 
     31 CB        -71.0789   25.1536  -75.2532 C.3       8 UNK        -0.1976 
     32 N         -72.7813   25.6092  -76.9450 N.am      8 UNK        -0.4313 
     33 C         -73.2992   25.8066  -78.1648 C.2       8 UNK         0.5041 
     34 O         -72.6467   26.2024  -79.1310 O.2       8 UNK        -0.5577 
     35 CA        -74.8162   25.5835  -78.3130 C.3       7 UNK         0.0284 
     36 CB        -75.1268   24.1148  -78.6416 C.3       7 UNK        -0.1958 
     37 N         -75.5713   25.9945  -77.1235 N.am      7 UNK        -0.4454 
     38 C         -75.6094   27.2436  -76.6361 C.2       7 UNK         0.5089 
     39 O         -75.0533   28.2035  -77.1676 O.2       7 UNK        -0.5125 
     40 CA        -76.3308   27.4441  -75.2982 C.3       6 UNK         0.0408 
     41 CB        -77.8507   27.5161  -75.4943 C.3       6 UNK        -0.1791 
     42 N         -75.9899   26.3890  -74.3417 N.am      6 UNK        -0.4762 
     43 C         -74.8153   26.2964  -73.6992 C.2       6 UNK         0.5007 
     44 O         -73.9139   27.1311  -73.8059 O.2       6 UNK        -0.5032 
     45 CA        -74.5756   25.0325  -72.8418 C.3       5 UNK         0.0783 
     46 C46       -74.8983   25.2408  -71.3372 C.3       11 UNK        -0.0857 
     47 S47       -76.6680   25.0520  -70.8987 S.3       11 UNK        -0.2512 
     48 C48       -77.0409   26.5721  -69.9682 C.3       11 UNK         0.0225 
     49 N         -75.2476   23.8476  -73.3817 N.am      5 UNK        -0.4615 
     50 C         -74.9513   23.2488  -74.5409 C.2       4 UNK         0.5053 
     51 O         -74.0198   23.5914  -75.2664 O.2       4 UNK        -0.5105 
     52 CA        -75.8970   22.1197  -74.9895 C.3       4 UNK         0.0263 
     53 CB        -75.4708   20.7797  -74.3700 C.3       4 UNK        -0.1981 
     54 N         -77.3045   22.3910  -74.6661 N.am      4 UNK        -0.4224 
     55 C         -77.9977   23.4308  -75.1505 C.2       3 UNK         0.4895 
     56 O         -77.5256   24.2451  -75.9464 O.2       3 UNK        -0.5091 
     57 CA        -79.4169   23.6345  -74.5934 C.3       3 UNK         0.0250 
     58 CB        -79.3583   24.2583  -73.1891 C.3       3 UNK        -0.1996 
     59 N         -80.2192   24.5110  -75.4475 N.am      3 UNK        -0.4254 
     60 C         -80.7562   24.1548  -76.6224 C.2       2 UNK         0.5004 
     61 O         -80.6693   23.0196  -77.0943 O.2       2 UNK        -0.5226 
     62 CA        -81.5499   25.2403  -77.3712 C.3       2 UNK         0.0269 
     63 CB        -82.5958   24.6573  -78.3436 C.3       2 UNK        -0.1926 
     64 N         -82.2000   26.1544  -76.4268 N.am      2 UNK        -0.4687 
     65 C         -82.4367   27.4547  -76.6552 C.2       1 UNK         0.5165 
     66 O         -82.1435   28.0213  -77.7089 O.2       1 UNK        -0.5079 
     67 H67       -84.5655   29.5966  -72.7649 H         1 UNK         0.0900 
     68 H68       -85.0891   29.8556  -74.4382 H         1 UNK         0.0900 
     69 H69       -86.2462   29.3507  -73.2233 H         1 UNK         0.0900 
     70 H70       -83.8915   26.4104  -74.9089 H         1 UNK         0.2959 
     71 H71       -83.7803   28.9581  -76.0640 H         1 UNK         0.1079 
     72 H72       -81.4899   29.7046  -75.4009 H         1 UNK         0.0837 
     73 H73       -82.6131   29.8217  -74.0916 H         1 UNK         0.0837 
     74 H74       -80.2378   30.3768  -73.2227 H         1 UNK         0.0685 
     75 H75       -80.8690   29.6140  -71.7841 H         1 UNK         0.0685 
     76 H76       -79.4289   27.4456  -70.9852 H         1 UNK         0.1434 
     77 H77       -75.2428   28.2979  -70.9895 H         1 UNK         0.1329 
     78 H78       -77.9046   30.6695  -73.3654 H         1 UNK         0.1335 
     79 H79       -74.7538   29.7552  -73.5692 H         1 UNK         0.0680 
     80 H80       -75.6176   31.2471  -73.3378 H         1 UNK         0.0680 
     81 H81       -72.4597   29.5112  -70.4909 H         1 UNK         0.1032 
     82 H82       -73.2899   28.5922  -71.7087 H         1 UNK         0.1032 
     83 H83       -71.2917   30.7772  -72.3996 H         1 UNK         0.0461 
     84 H84       -68.9648   27.6075  -72.7560 H         1 UNK         0.3453 
     85 H85       -70.0401   28.1741  -74.0095 H         1 UNK         0.3453 
     86 H86       -72.6918   28.7465  -74.0449 H         1 UNK         0.2984 
     87 H87       -73.1732   30.0928  -76.3948 H         1 UNK         0.0554 
     88 H88       -71.4379   31.4805  -77.4779 H         1 UNK         0.0847 
     89 H89       -71.7710   30.0674  -78.4645 H         1 UNK         0.0847 
     90 H90       -70.3083   30.1341  -77.4822 H         1 UNK         0.0847 
     91 H91       -73.0850   27.9167  -76.7034 H         1 UNK         0.3141 
     92 H92       -70.7356   25.5897  -77.3257 H         1 UNK         0.0743 
     93 H93       -71.6922   25.4847  -74.4153 H         1 UNK         0.0784 
     94 H94       -71.2351   24.0825  -75.3831 H         1 UNK         0.0784 
     95 H95       -70.0358   25.2942  -74.9669 H         1 UNK         0.0784 
     96 H96       -73.3735   25.1785  -76.2400 H         1 UNK         0.3213 
     97 H97       -75.1597   26.1997  -79.1466 H         1 UNK         0.0855 
     98 H98       -74.7854   23.4428  -77.8545 H         1 UNK         0.0814 
     99 H99       -74.6326   23.8108  -79.5652 H         1 UNK         0.0814 
    100 H100      -76.1968   23.9552  -78.7771 H         1 UNK         0.0814 
    101 H101      -76.1127   25.2774  -76.6448 H         1 UNK         0.3105 
    102 H102      -76.0089   28.3978  -74.8817 H         1 UNK         0.0547 
    103 H103      -78.1325   28.4398  -76.0006 H         1 UNK         0.0837 
    104 H104      -78.2370   26.6915  -76.0916 H         1 UNK         0.0837 
    105 H105      -78.3603   27.5017  -74.5341 H         1 UNK         0.0837 
    106 H106      -76.6540   25.6352  -74.2433 H         1 UNK         0.3020 
    107 H107      -73.5026   24.8398  -72.9095 H         1 UNK         0.1245 
    108 H108      -74.5079   26.1935  -70.9806 H         1 UNK         0.0781 
    109 H109      -74.3587   24.4879  -70.7606 H         1 UNK         0.0781 
    110 H110      -76.2261   26.7974  -69.2784 H         1 UNK         0.0836 
    111 H111      -77.9203   26.3940  -69.3475 H         1 UNK         0.0836 
    112 H112      -76.0304   23.5083  -72.8417 H         1 UNK         0.3022 
    113 H113      -75.8163   22.0348  -76.0751 H         1 UNK         0.0747 
    114 H114      -76.0783   19.9569  -74.7475 H         1 UNK         0.0793 
    115 H115      -74.4322   20.5511  -74.6141 H         1 UNK         0.0793 
    116 H116      -75.5554   20.7894  -73.2826 H         1 UNK         0.0793 
    117 H117      -77.7521   21.7632  -74.0132 H         1 UNK         0.3047 
    118 H118      -79.9091   22.6615  -74.5309 H         1 UNK         0.0822 
    119 H119      -78.8284   23.6096  -72.4911 H         1 UNK         0.0807 
    120 H120      -80.3576   24.4132  -72.7816 H         1 UNK         0.0807 
    121 H121      -78.8497   25.2237  -73.1924 H         1 UNK         0.0807 
    122 H122      -80.2937   25.4748  -75.1569 H         1 UNK         0.2946 
    123 H123      -80.8113   25.7947  -77.9553 H         1 UNK         0.1144 
    124 H124      -83.1128   25.4452  -78.8916 H         1 UNK         0.0793 
    125 H125      -83.3463   24.0668  -77.8171 H         1 UNK         0.0793 
    126 H126      -82.1271   24.0082  -79.0843 H         1 UNK         0.0793 
    127 H127      -82.4151   25.7638  -75.5208 H         1 UNK         0.2896 
@<TRIPOS>BOND
     1    1    2 1    
     2    1   67 1    
     3    1   68 1    
     4    1   69 1    
     5    2    3 2    
     6    2    4 am   BACKBONE|DICT|INTERRES
     7    4    5 1    
     8    4   70 1    
     9    5    6 1    
    10    5   65 1    
    11    5   71 1    
    12    6    7 1    
    13    6   72 1    
    14    6   73 1    
    15    7    8 1    
    16    8    9 1    
    17    8   74 1    
    18    8   75 1    
    19    9   10 ar   
    20    9   14 ar   
    21   10   11 ar   
    22   10   76 1    
    23   11   12 ar   
    24   11   48 1    
    25   12   13 ar   
    26   12   77 1    
    27   13   14 ar   
    28   13   15 1    
    29   14   78 1    
    30   15   16 1    
    31   15   79 1    
    32   15   80 1    
    33   16   17 1    
    34   17   18 1    
    35   17   81 1    
    36   17   82 1    
    37   18   19 1    
    38   18   22 1    
    39   18   83 1    
    40   19   20 am   BACKBONE|DICT|INTERRES
    41   19   21 2    
    42   20   84 1    
    43   20   85 1    
    44   22   23 am   BACKBONE|DICT|INTERRES
    45   22   86 1    
    46   23   24 2    
    47   23   25 1    
    48   25   26 1    
    49   25   27 1    
    50   25   87 1    
    51   26   88 1    
    52   26   89 1    
    53   26   90 1    
    54   27   28 am   BACKBONE|DICT|INTERRES
    55   27   91 1    
    56   28   29 2    
    57   28   30 1    
    58   30   31 1    
    59   30   32 1    
    60   30   92 1    
    61   31   93 1    
    62   31   94 1    
    63   31   95 1    
    64   32   33 am   BACKBONE|DICT|INTERRES
    65   32   96 1    
    66   33   34 2    
    67   33   35 1    
    68   35   36 1    
    69   35   37 1    
    70   35   97 1    
    71   36   98 1    
    72   36   99 1    
    73   36  100 1    
    74   37   38 am   BACKBONE|DICT|INTERRES
    75   37  101 1    
    76   38   39 2    
    77   38   40 1    
    78   40   41 1    
    79   40   42 1    
    80   40  102 1    
    81   41  103 1    
    82   41  104 1    
    83   41  105 1    
    84   42   43 am   BACKBONE|DICT|INTERRES
    85   42  106 1    
    86   43   44 2    
    87   43   45 1    
    88   45   46 1    
    89   45   49 1    
    90   45  107 1    
    91   46   47 1    
    92   46  108 1    
    93   46  109 1    
    94   47   48 1    
    95   48  110 1    
    96   48  111 1    
    97   49   50 am   BACKBONE|DICT|INTERRES
    98   49  112 1    
    99   50   51 2    
   100   50   52 1    
   101   52   53 1    
   102   52   54 1    
   103   52  113 1    
   104   53  114 1    
   105   53  115 1    
   106   53  116 1    
   107   54   55 am   BACKBONE|DICT|INTERRES
   108   54  117 1    
   109   55   56 2    
   110   55   57 1    
   111   57   58 1    
   112   57   59 1    
   113   57  118 1    
   114   58  119 1    
   115   58  120 1    
   116   58  121 1    
   117   59   60 am   BACKBONE|DICT|INTERRES
   118   59  122 1    
   119   60   61 2    
   120   60   62 1    
   121   62   63 1    
   122   62   64 1    
   123   62  123 1    
   124   63  124 1    
   125   63  125 1    
   126   63  126 1    
   127   64   65 am   BACKBONE|DICT|INTERRES
   128   64  127 1    
   129   65   66 2    
@<TRIPOS>SUBSTRUCTURE
     1 UNK         1 GROUP             0       ****    0 ROOT    
