@<TRIPOS>MOLECULE
3R135
127   129    1
SMALL
USER_CHARGES


@<TRIPOS>ATOM
      1 CA        -80.9503   21.7261  -72.7455 C.3       0 UNK        -0.1998 
      2 C         -81.5636   23.0569  -73.1524 C.2       0 UNK         0.4909 
      3 O         -82.1316   23.1629  -74.2399 O.2       0 UNK        -0.5240 
      4 N         -81.4392   24.0758  -72.2924 N.am      1 UNK        -0.4739 
      5 CA        -81.8969   25.4547  -72.5019 C.3       1 UNK         0.0864 
      6 C6        -81.6870   26.3438  -71.2430 C.3       11 UNK        -0.0881 
      7 S7        -80.1074   26.0738  -70.3542 S.3       11 UNK        -0.2682 
      8 C8        -79.6676   27.7523  -69.8079 C.3       11 UNK         0.0289 
      9 C9        -78.6877   28.4268  -70.7571 C.ar      11 UNK        -0.0687 
     10 C10       -79.1457   29.2857  -71.7614 C.ar      11 UNK        -0.0823 
     11 C11       -78.2396   29.9520  -72.5942 C.ar      11 UNK        -0.0830 
     12 C12       -76.8682   29.7528  -72.4106 C.ar      11 UNK        -0.1021 
     13 C13       -76.3987   28.8731  -71.4331 C.ar      11 UNK        -0.0753 
     14 C14       -77.3129   28.2159  -70.6050 C.ar      11 UNK        -0.0933 
     15 C15       -74.9043   28.6331  -71.2902 C.3       11 UNK         0.0166 
     16 S16       -74.0618   30.1119  -70.6483 S.3       11 UNK        -0.2615 
     17 C17       -72.3123   29.6130  -70.7705 C.3       11 UNK        -0.0865 
     18 CA        -71.5854   30.2813  -71.9673 C.3       10 UNK         0.0862 
     19 C         -70.0553   30.0343  -71.8752 C.2       10 UNK         0.5551 
     20 N         -69.2726   31.0608  -71.5732 N.am      10 UNK        -0.7319 
     21 O         -69.5845   28.9089  -72.0240 O.2       10 UNK        -0.5018 
     22 N         -72.1329   29.8240  -73.2525 N.am      10 UNK        -0.4509 
     23 C         -71.8511   30.3537  -74.4508 C.2       10 UNK         0.4899 
     24 O         -71.1727   31.3706  -74.6054 O.2       10 UNK        -0.4839 
     25 CA        -72.4410   29.6245  -75.6790 C.3       9 UNK         0.0222 
     26 CB        -71.7324   29.9943  -76.9992 C.3       9 UNK        -0.1966 
     27 N         -72.5089   28.1641  -75.5146 N.am      9 UNK        -0.4218 
     28 C         -71.4816   27.3369  -75.2606 C.2       9 UNK         0.5020 
     29 O         -70.3007   27.6845  -75.2342 O.2       9 UNK        -0.5274 
     30 CA        -71.8318   25.8791  -74.9413 C.3       8 UNK         0.0270 
     31 CB        -72.2937   25.7490  -73.4789 C.3       8 UNK        -0.1976 
     32 N         -72.8549   25.3319  -75.8342 N.am      8 UNK        -0.4313 
     33 C         -72.5790   24.7542  -77.0108 C.2       8 UNK         0.5041 
     34 O         -71.4515   24.7121  -77.5061 O.2       8 UNK        -0.5577 
     35 CA        -73.7405   24.0590  -77.7383 C.3       7 UNK         0.0284 
     36 CB        -74.1722   22.7901  -76.9841 C.3       7 UNK        -0.1958 
     37 N         -74.8978   24.9276  -77.9536 N.am      7 UNK        -0.4454 
     38 C         -74.9335   25.9276  -78.8452 C.2       7 UNK         0.5089 
     39 O         -73.9837   26.2426  -79.5631 O.2       7 UNK        -0.5125 
     40 CA        -76.2584   26.7004  -78.9758 C.3       6 UNK         0.0408 
     41 CB        -77.2486   25.9316  -79.8647 C.3       6 UNK        -0.1791 
     42 N         -76.8878   26.9945  -77.6883 N.am      6 UNK        -0.4762 
     43 C         -76.3599   27.7932  -76.7495 C.2       6 UNK         0.5007 
     44 O         -75.2897   28.3871  -76.8746 O.2       6 UNK        -0.5032 
     45 CA        -77.1345   27.9001  -75.4232 C.3       5 UNK         0.0783 
     46 C46       -78.3859   28.8078  -75.5615 C.3       11 UNK        -0.0857 
     47 S47       -77.9921   30.5702  -75.3180 S.3       11 UNK        -0.2512 
     48 C48       -78.7452   30.8916  -73.6847 C.3       11 UNK         0.0225 
     49 N         -77.4718   26.5831  -74.8804 N.am      5 UNK        -0.4615 
     50 C         -76.6026   25.6016  -74.6032 C.2       4 UNK         0.5053 
     51 O         -75.3815   25.7110  -74.7046 O.2       4 UNK        -0.5105 
     52 CA        -77.2041   24.2434  -74.2129 C.3       4 UNK         0.0263 
     53 CB        -77.5490   24.2014  -72.7165 C.3       4 UNK        -0.1981 
     54 N         -78.3893   23.9322  -75.0161 N.am      4 UNK        -0.4224 
     55 C         -78.3551   23.6565  -76.3290 C.2       3 UNK         0.4895 
     56 O         -77.3163   23.5600  -76.9809 O.2       3 UNK        -0.5091 
     57 CA        -79.7056   23.5174  -77.0488 C.3       3 UNK         0.0250 
     58 CB        -80.2566   22.0896  -76.9135 C.3       3 UNK        -0.1996 
     59 N         -80.6902   24.4891  -76.5657 N.am      3 UNK        -0.4254 
     60 C         -80.6132   25.8057  -76.8164 C.2       2 UNK         0.5004 
     61 O         -79.7396   26.3133  -77.5198 O.2       2 UNK        -0.5226 
     62 CA        -81.6512   26.7206  -76.1401 C.3       2 UNK         0.0269 
     63 CB        -82.8785   26.9008  -77.0468 C.3       2 UNK        -0.1926 
     64 N         -82.0845   26.2521  -74.8193 N.am      2 UNK        -0.4687 
     65 C         -81.2704   26.0672  -73.7702 C.2       1 UNK         0.5165 
     66 O         -80.0638   26.3036  -73.8025 O.2       1 UNK        -0.5079 
     67 H67       -80.1106   21.4835  -73.3959 H         1 UNK         0.0900 
     68 H68       -81.6900   20.9306  -72.8314 H         1 UNK         0.0900 
     69 H69       -80.5895   21.7424  -71.7172 H         1 UNK         0.0900 
     70 H70       -80.9309   23.9380  -71.4296 H         1 UNK         0.2959 
     71 H71       -82.9744   25.3982  -72.6715 H         1 UNK         0.1079 
     72 H72       -81.7978   27.4004  -71.4946 H         1 UNK         0.0837 
     73 H73       -82.4851   26.1357  -70.5288 H         1 UNK         0.0837 
     74 H74       -79.2178   27.6832  -68.8163 H         1 UNK         0.0685 
     75 H75       -80.5660   28.3586  -69.6832 H         1 UNK         0.0685 
     76 H76       -80.2083   29.4418  -71.8859 H         1 UNK         0.1434 
     77 H77       -76.1605   30.2721  -73.0425 H         1 UNK         0.1329 
     78 H78       -76.9570   27.5432  -69.8366 H         1 UNK         0.1335 
     79 H79       -74.4943   28.3669  -72.2650 H         1 UNK         0.0680 
     80 H80       -74.7079   27.7890  -70.6272 H         1 UNK         0.0680 
     81 H81       -71.8347   29.9014  -69.8318 H         1 UNK         0.1032 
     82 H82       -72.2318   28.5253  -70.8216 H         1 UNK         0.1032 
     83 H83       -71.7618   31.3575  -71.9069 H         1 UNK         0.0461 
     84 H84       -68.2788   30.9130  -71.4917 H         1 UNK         0.3453 
     85 H85       -69.6537   31.9856  -71.4453 H         1 UNK         0.3453 
     86 H86       -72.6773   28.9775  -73.2250 H         1 UNK         0.2984 
     87 H87       -73.4723   29.9703  -75.7557 H         1 UNK         0.0554 
     88 H88       -71.7986   31.0655  -77.1932 H         1 UNK         0.0847 
     89 H89       -72.1894   29.4844  -77.8475 H         1 UNK         0.0847 
     90 H90       -70.6742   29.7322  -76.9789 H         1 UNK         0.0847 
     91 H91       -73.4384   27.7674  -75.5787 H         1 UNK         0.3141 
     92 H92       -70.9180   25.2894  -75.0463 H         1 UNK         0.0743 
     93 H93       -71.5280   26.1185  -72.7949 H         1 UNK         0.0784 
     94 H94       -73.2041   26.3162  -73.2842 H         1 UNK         0.0784 
     95 H95       -72.4875   24.7088  -73.2169 H         1 UNK         0.0784 
     96 H96       -73.8187   25.3586  -75.4995 H         1 UNK         0.3213 
     97 H97       -73.3715   23.7477  -78.7183 H         1 UNK         0.0855 
     98 H98       -74.6049   23.0235  -76.0109 H         1 UNK         0.0814 
     99 H99       -73.3226   22.1273  -76.8141 H         1 UNK         0.0814 
    100 H100      -74.9132   22.2264  -77.5511 H         1 UNK         0.0814 
    101 H101      -75.7470   24.6937  -77.4472 H         1 UNK         0.3105 
    102 H102      -76.0394   27.6540  -79.4609 H         1 UNK         0.0547 
    103 H103      -77.5335   24.9772  -79.4206 H         1 UNK         0.0837 
    104 H104      -78.1600   26.5061  -80.0314 H         1 UNK         0.0837 
    105 H105      -76.8140   25.7208  -80.8427 H         1 UNK         0.0837 
    106 H106      -77.8001   26.5784  -77.5178 H         1 UNK         0.3020 
    107 H107      -76.4508   28.3441  -74.6989 H         1 UNK         0.1245 
    108 H108      -79.1404   28.5290  -74.8261 H         1 UNK         0.0781 
    109 H109      -78.8731   28.6878  -76.5306 H         1 UNK         0.0781 
    110 H110      -78.5283   31.9197  -73.3923 H         1 UNK         0.0836 
    111 H111      -79.8296   30.8214  -73.7834 H         1 UNK         0.0836 
    112 H112      -78.4541   26.4224  -74.6688 H         1 UNK         0.3022 
    113 H113      -76.4524   23.4758  -74.4074 H         1 UNK         0.0747 
    114 H114      -76.6597   24.3757  -72.1096 H         1 UNK         0.0793 
    115 H115      -77.9552   23.2323  -72.4272 H         1 UNK         0.0793 
    116 H116      -78.2765   24.9659  -72.4454 H         1 UNK         0.0793 
    117 H117      -79.2867   24.0711  -74.5754 H         1 UNK         0.3047 
    118 H118      -79.5339   23.7101  -78.1103 H         1 UNK         0.0822 
    119 H119      -79.5543   21.3627  -77.3240 H         1 UNK         0.0807 
    120 H120      -81.1955   21.9741  -77.4552 H         1 UNK         0.0807 
    121 H121      -80.4346   21.8166  -75.8739 H         1 UNK         0.0807 
    122 H122      -81.4140   24.1447  -75.9425 H         1 UNK         0.2946 
    123 H123      -81.1820   27.6970  -76.0055 H         1 UNK         0.1144 
    124 H124      -82.5852   27.2703  -78.0307 H         1 UNK         0.0793 
    125 H125      -83.5795   27.6230  -76.6281 H         1 UNK         0.0793 
    126 H126      -83.4117   25.9612  -77.1972 H         1 UNK         0.0793 
    127 H127      -83.0571   25.9935  -74.7316 H         1 UNK         0.2896 
@<TRIPOS>BOND
     1    1    2 1    
     2    1   67 1    
     3    1   68 1    
     4    1   69 1    
     5    2    3 2    
     6    2    4 am   BACKBONE|DICT|INTERRES
     7    4    5 1    
     8    4   70 1    
     9    5    6 1    
    10    5   65 1    
    11    5   71 1    
    12    6    7 1    
    13    6   72 1    
    14    6   73 1    
    15    7    8 1    
    16    8    9 1    
    17    8   74 1    
    18    8   75 1    
    19    9   10 ar   
    20    9   14 ar   
    21   10   11 ar   
    22   10   76 1    
    23   11   12 ar   
    24   11   48 1    
    25   12   13 ar   
    26   12   77 1    
    27   13   14 ar   
    28   13   15 1    
    29   14   78 1    
    30   15   16 1    
    31   15   79 1    
    32   15   80 1    
    33   16   17 1    
    34   17   18 1    
    35   17   81 1    
    36   17   82 1    
    37   18   19 1    
    38   18   22 1    
    39   18   83 1    
    40   19   20 am   BACKBONE|DICT|INTERRES
    41   19   21 2    
    42   20   84 1    
    43   20   85 1    
    44   22   23 am   BACKBONE|DICT|INTERRES
    45   22   86 1    
    46   23   24 2    
    47   23   25 1    
    48   25   26 1    
    49   25   27 1    
    50   25   87 1    
    51   26   88 1    
    52   26   89 1    
    53   26   90 1    
    54   27   28 am   BACKBONE|DICT|INTERRES
    55   27   91 1    
    56   28   29 2    
    57   28   30 1    
    58   30   31 1    
    59   30   32 1    
    60   30   92 1    
    61   31   93 1    
    62   31   94 1    
    63   31   95 1    
    64   32   33 am   BACKBONE|DICT|INTERRES
    65   32   96 1    
    66   33   34 2    
    67   33   35 1    
    68   35   36 1    
    69   35   37 1    
    70   35   97 1    
    71   36   98 1    
    72   36   99 1    
    73   36  100 1    
    74   37   38 am   BACKBONE|DICT|INTERRES
    75   37  101 1    
    76   38   39 2    
    77   38   40 1    
    78   40   41 1    
    79   40   42 1    
    80   40  102 1    
    81   41  103 1    
    82   41  104 1    
    83   41  105 1    
    84   42   43 am   BACKBONE|DICT|INTERRES
    85   42  106 1    
    86   43   44 2    
    87   43   45 1    
    88   45   46 1    
    89   45   49 1    
    90   45  107 1    
    91   46   47 1    
    92   46  108 1    
    93   46  109 1    
    94   47   48 1    
    95   48  110 1    
    96   48  111 1    
    97   49   50 am   BACKBONE|DICT|INTERRES
    98   49  112 1    
    99   50   51 2    
   100   50   52 1    
   101   52   53 1    
   102   52   54 1    
   103   52  113 1    
   104   53  114 1    
   105   53  115 1    
   106   53  116 1    
   107   54   55 am   BACKBONE|DICT|INTERRES
   108   54  117 1    
   109   55   56 2    
   110   55   57 1    
   111   57   58 1    
   112   57   59 1    
   113   57  118 1    
   114   58  119 1    
   115   58  120 1    
   116   58  121 1    
   117   59   60 am   BACKBONE|DICT|INTERRES
   118   59  122 1    
   119   60   61 2    
   120   60   62 1    
   121   62   63 1    
   122   62   64 1    
   123   62  123 1    
   124   63  124 1    
   125   63  125 1    
   126   63  126 1    
   127   64   65 am   BACKBONE|DICT|INTERRES
   128   64  127 1    
   129   65   66 2    
@<TRIPOS>SUBSTRUCTURE
     1 UNK         1 GROUP             0       ****    0 ROOT    
