@<TRIPOS>MOLECULE
3R135
127   129    1
SMALL
USER_CHARGES


@<TRIPOS>ATOM
      1 CA        -81.8793   32.8401  -74.7004 C.3       0 UNK        -0.1998 
      2 C         -80.7950   31.7831  -74.5563 C.2       0 UNK         0.4909 
      3 O         -79.6700   31.9938  -75.0089 O.2       0 UNK        -0.5240 
      4 N         -81.1249   30.6443  -73.9323 N.am      1 UNK        -0.4739 
      5 CA        -80.2005   29.5253  -73.6927 C.3       1 UNK         0.0864 
      6 C6        -80.6740   28.6191  -72.5300 C.3       11 UNK        -0.0881 
      7 S7        -80.7601   29.5592  -70.9657 S.3       11 UNK        -0.2682 
      8 C8        -80.1481   28.3580  -69.7352 C.3       11 UNK         0.0289 
      9 C9        -78.6992   27.9148  -69.9328 C.ar      11 UNK        -0.0687 
     10 C10       -78.3589   26.5813  -69.6867 C.ar      11 UNK        -0.0823 
     11 C11       -77.0423   26.1356  -69.8399 C.ar      11 UNK        -0.0830 
     12 C12       -76.0545   27.0431  -70.2334 C.ar      11 UNK        -0.1021 
     13 C13       -76.3732   28.3836  -70.4682 C.ar      11 UNK        -0.0753 
     14 C14       -77.6956   28.8148  -70.3131 C.ar      11 UNK        -0.0933 
     15 C15       -75.2808   29.3664  -70.8699 C.3       11 UNK         0.0166 
     16 S16       -74.7941   29.1787  -72.6143 S.3       11 UNK        -0.2615 
     17 C17       -76.3502   29.6482  -73.4464 C.3       11 UNK        -0.0865 
     18 CA        -76.2051   29.9217  -74.9665 C.3       10 UNK         0.0862 
     19 C         -75.4983   31.2757  -75.2758 C.2       10 UNK         0.5551 
     20 N         -74.5141   31.3376  -76.1652 N.am      10 UNK        -0.7319 
     21 O         -75.8587   32.3014  -74.7040 O.2       10 UNK        -0.5018 
     22 N         -75.6343   28.7557  -75.6524 N.am      10 UNK        -0.4509 
     23 C         -75.8937   28.3762  -76.9082 C.2       10 UNK         0.4899 
     24 O         -76.7267   28.9191  -77.6359 O.2       10 UNK        -0.4839 
     25 CA        -75.0336   27.2097  -77.4394 C.3       9 UNK         0.0222 
     26 CB        -75.1331   27.0361  -78.9690 C.3       9 UNK        -0.1966 
     27 N         -73.6271   27.2961  -77.0154 N.am      9 UNK        -0.4218 
     28 C         -72.7831   28.3237  -77.2194 C.2       9 UNK         0.5020 
     29 O         -73.0900   29.3432  -77.8385 O.2       9 UNK        -0.5274 
     30 CA        -71.3774   28.2502  -76.5904 C.3       8 UNK         0.0270 
     31 CB        -71.2859   29.2138  -75.3941 C.3       8 UNK        -0.1976 
     32 N         -70.9942   26.9108  -76.1436 N.am      8 UNK        -0.4313 
     33 C         -70.6790   25.8873  -76.9481 C.2       8 UNK         0.5041 
     34 O         -70.5796   25.9838  -78.1717 O.2       8 UNK        -0.5577 
     35 CA        -70.4638   24.5157  -76.2776 C.3       7 UNK         0.0284 
     36 CB        -68.9619   24.2272  -76.1190 C.3       7 UNK        -0.1958 
     37 N         -71.1273   24.3557  -74.9742 N.am      7 UNK        -0.4454 
     38 C         -72.4465   24.4518  -74.7616 C.2       7 UNK         0.5089 
     39 O         -73.2642   24.7530  -75.6365 O.2       7 UNK        -0.5125 
     40 CA        -72.9291   24.2203  -73.3262 C.3       6 UNK         0.0408 
     41 CB        -72.7188   25.4735  -72.4578 C.3       6 UNK        -0.1791 
     42 N         -74.3489   23.9051  -73.3872 N.am      6 UNK        -0.4762 
     43 C         -75.0293   23.1148  -72.5509 C.2       6 UNK         0.5007 
     44 O         -74.5297   22.5714  -71.5650 O.2       6 UNK        -0.5032 
     45 CA        -76.5164   22.8829  -72.8917 C.3       5 UNK         0.0783 
     46 C46       -77.4324   23.9056  -72.1764 C.3       11 UNK        -0.0857 
     47 S47       -77.7469   23.4870  -70.4304 S.3       11 UNK        -0.2512 
     48 C48       -76.6761   24.6816  -69.5600 C.3       11 UNK         0.0225 
     49 N         -76.7414   22.9318  -74.3372 N.am      5 UNK        -0.4615 
     50 C         -76.4431   21.9705  -75.2165 C.2       4 UNK         0.5053 
     51 O         -75.9743   20.8788  -74.8915 O.2       4 UNK        -0.5105 
     52 CA        -76.7307   22.2875  -76.7025 C.3       4 UNK         0.0263 
     53 CB        -76.6103   21.0455  -77.6056 C.3       4 UNK        -0.1981 
     54 N         -78.0462   22.9076  -76.9186 N.am      4 UNK        -0.4224 
     55 C         -78.3638   24.1753  -76.6260 C.2       3 UNK         0.4895 
     56 O         -77.5680   24.9750  -76.1255 O.2       3 UNK        -0.5091 
     57 CA        -79.8155   24.6000  -76.8711 C.3       3 UNK         0.0250 
     58 CB        -80.7481   24.0336  -75.7845 C.3       3 UNK        -0.1996 
     59 N         -79.8677   26.0563  -76.8494 N.am      3 UNK        -0.4254 
     60 C         -80.7443   26.8362  -77.4826 C.2       2 UNK         0.5004 
     61 O         -81.7041   26.4045  -78.1247 O.2       2 UNK        -0.5226 
     62 CA        -80.4966   28.3539  -77.3766 C.3       2 UNK         0.0269 
     63 CB        -81.3630   29.1623  -78.3609 C.3       2 UNK        -0.1926 
     64 N         -80.7082   28.8846  -76.0265 N.am      2 UNK        -0.4687 
     65 C         -79.9013   28.7076  -74.9691 C.2       1 UNK         0.5165 
     66 O         -78.9258   27.9586  -74.9792 O.2       1 UNK        -0.5079 
     67 H67       -82.8211   32.5223  -74.2533 H         1 UNK         0.0900 
     68 H68       -81.5683   33.7643  -74.2140 H         1 UNK         0.0900 
     69 H69       -82.0582   33.0528  -75.7540 H         1 UNK         0.0900 
     70 H70       -82.0565   30.5309  -73.5577 H         1 UNK         0.2959 
     71 H71       -79.2441   29.9579  -73.3934 H         1 UNK         0.1079 
     72 H72       -81.6549   28.1904  -72.7423 H         1 UNK         0.0837 
     73 H73       -79.9916   27.7762  -72.4018 H         1 UNK         0.0837 
     74 H74       -80.2373   28.8041  -68.7441 H         1 UNK         0.0685 
     75 H75       -80.8162   27.4952  -69.7449 H         1 UNK         0.0685 
     76 H76       -79.1222   25.8818  -69.3737 H         1 UNK         0.1434 
     77 H77       -75.0318   26.7120  -70.3530 H         1 UNK         0.1329 
     78 H78       -77.9430   29.8529  -70.4857 H         1 UNK         0.1335 
     79 H79       -75.5997   30.3947  -70.6920 H         1 UNK         0.0680 
     80 H80       -74.4031   29.2078  -70.2417 H         1 UNK         0.0680 
     81 H81       -77.0547   28.8292  -73.2958 H         1 UNK         0.1032 
     82 H82       -76.7879   30.5109  -72.9408 H         1 UNK         0.1032 
     83 H83       -77.2169   30.0595  -75.3504 H         1 UNK         0.0461 
     84 H84       -74.2108   30.5184  -76.6798 H         1 UNK         0.3453 
     85 H85       -74.0800   32.2277  -76.3487 H         1 UNK         0.3453 
     86 H86       -74.9258   28.2594  -75.1333 H         1 UNK         0.2984 
     87 H87       -75.4297   26.3040  -76.9797 H         1 UNK         0.0554 
     88 H88       -74.5376   26.1897  -79.3107 H         1 UNK         0.0847 
     89 H89       -74.7904   27.9249  -79.4997 H         1 UNK         0.0847 
     90 H90       -76.1638   26.8507  -79.2738 H         1 UNK         0.0847 
     91 H91       -73.2918   26.4867  -76.4991 H         1 UNK         0.3141 
     92 H92       -70.6634   28.5751  -77.3502 H         1 UNK         0.0743 
     93 H93       -71.9823   28.9417  -74.5994 H         1 UNK         0.0784 
     94 H94       -70.2812   29.2297  -74.9714 H         1 UNK         0.0784 
     95 H95       -71.5229   30.2354  -75.6953 H         1 UNK         0.0784 
     96 H96       -71.0276   26.7357  -75.1503 H         1 UNK         0.3213 
     97 H97       -70.8862   23.7658  -76.9500 H         1 UNK         0.0855 
     98 H98       -68.4863   24.9270  -75.4306 H         1 UNK         0.0814 
     99 H99       -68.4449   24.3109  -77.0763 H         1 UNK         0.0814 
    100 H100      -68.7870   23.2171  -75.7481 H         1 UNK         0.0814 
    101 H101      -70.5310   24.1144  -74.1948 H         1 UNK         0.3105 
    102 H102      -72.3792   23.3761  -72.9050 H         1 UNK         0.0547 
    103 H103      -73.0686   25.3100  -71.4384 H         1 UNK         0.0837 
    104 H104      -71.6633   25.7405  -72.3958 H         1 UNK         0.0837 
    105 H105      -73.2534   26.3365  -72.8575 H         1 UNK         0.0837 
    106 H106      -74.8085   24.2534  -74.2201 H         1 UNK         0.3020 
    107 H107      -76.7763   21.8776  -72.5513 H         1 UNK         0.1245 
    108 H108      -78.4118   23.9224  -72.6578 H         1 UNK         0.0781 
    109 H109      -77.0483   24.9228  -72.2751 H         1 UNK         0.0781 
    110 H110      -75.6373   24.4839  -69.8284 H         1 UNK         0.0836 
    111 H111      -76.7529   24.5028  -68.4868 H         1 UNK         0.0836 
    112 H112      -77.0992   23.8043  -74.7170 H         1 UNK         0.3022 
    113 H113      -75.9641   22.9985  -77.0196 H         1 UNK         0.0747 
    114 H114      -76.7655   21.3002  -78.6542 H         1 UNK         0.0793 
    115 H115      -75.6178   20.5991  -77.5290 H         1 UNK         0.0793 
    116 H116      -77.3359   20.2778  -77.3341 H         1 UNK         0.0793 
    117 H117      -78.7678   22.3021  -77.2836 H         1 UNK         0.3047 
    118 H118      -80.1224   24.2387  -77.8550 H         1 UNK         0.0822 
    119 H119      -80.4578   24.3746  -74.7896 H         1 UNK         0.0807 
    120 H120      -80.7306   22.9432  -75.7753 H         1 UNK         0.0807 
    121 H121      -81.7817   24.3371  -75.9520 H         1 UNK         0.0807 
    122 H122      -79.1242   26.4980  -76.3109 H         1 UNK         0.2946 
    123 H123      -79.4509   28.5229  -77.6453 H         1 UNK         0.1144 
    124 H124      -81.2145   28.8182  -79.3854 H         1 UNK         0.0793 
    125 H125      -82.4261   29.0689  -78.1357 H         1 UNK         0.0793 
    126 H126      -81.1058   30.2215  -78.3377 H         1 UNK         0.0793 
    127 H127      -81.4972   29.5029  -75.9081 H         1 UNK         0.2896 
@<TRIPOS>BOND
     1    1    2 1    
     2    1   67 1    
     3    1   68 1    
     4    1   69 1    
     5    2    3 2    
     6    2    4 am   BACKBONE|DICT|INTERRES
     7    4    5 1    
     8    4   70 1    
     9    5    6 1    
    10    5   65 1    
    11    5   71 1    
    12    6    7 1    
    13    6   72 1    
    14    6   73 1    
    15    7    8 1    
    16    8    9 1    
    17    8   74 1    
    18    8   75 1    
    19    9   10 ar   
    20    9   14 ar   
    21   10   11 ar   
    22   10   76 1    
    23   11   12 ar   
    24   11   48 1    
    25   12   13 ar   
    26   12   77 1    
    27   13   14 ar   
    28   13   15 1    
    29   14   78 1    
    30   15   16 1    
    31   15   79 1    
    32   15   80 1    
    33   16   17 1    
    34   17   18 1    
    35   17   81 1    
    36   17   82 1    
    37   18   19 1    
    38   18   22 1    
    39   18   83 1    
    40   19   20 am   BACKBONE|DICT|INTERRES
    41   19   21 2    
    42   20   84 1    
    43   20   85 1    
    44   22   23 am   BACKBONE|DICT|INTERRES
    45   22   86 1    
    46   23   24 2    
    47   23   25 1    
    48   25   26 1    
    49   25   27 1    
    50   25   87 1    
    51   26   88 1    
    52   26   89 1    
    53   26   90 1    
    54   27   28 am   BACKBONE|DICT|INTERRES
    55   27   91 1    
    56   28   29 2    
    57   28   30 1    
    58   30   31 1    
    59   30   32 1    
    60   30   92 1    
    61   31   93 1    
    62   31   94 1    
    63   31   95 1    
    64   32   33 am   BACKBONE|DICT|INTERRES
    65   32   96 1    
    66   33   34 2    
    67   33   35 1    
    68   35   36 1    
    69   35   37 1    
    70   35   97 1    
    71   36   98 1    
    72   36   99 1    
    73   36  100 1    
    74   37   38 am   BACKBONE|DICT|INTERRES
    75   37  101 1    
    76   38   39 2    
    77   38   40 1    
    78   40   41 1    
    79   40   42 1    
    80   40  102 1    
    81   41  103 1    
    82   41  104 1    
    83   41  105 1    
    84   42   43 am   BACKBONE|DICT|INTERRES
    85   42  106 1    
    86   43   44 2    
    87   43   45 1    
    88   45   46 1    
    89   45   49 1    
    90   45  107 1    
    91   46   47 1    
    92   46  108 1    
    93   46  109 1    
    94   47   48 1    
    95   48  110 1    
    96   48  111 1    
    97   49   50 am   BACKBONE|DICT|INTERRES
    98   49  112 1    
    99   50   51 2    
   100   50   52 1    
   101   52   53 1    
   102   52   54 1    
   103   52  113 1    
   104   53  114 1    
   105   53  115 1    
   106   53  116 1    
   107   54   55 am   BACKBONE|DICT|INTERRES
   108   54  117 1    
   109   55   56 2    
   110   55   57 1    
   111   57   58 1    
   112   57   59 1    
   113   57  118 1    
   114   58  119 1    
   115   58  120 1    
   116   58  121 1    
   117   59   60 am   BACKBONE|DICT|INTERRES
   118   59  122 1    
   119   60   61 2    
   120   60   62 1    
   121   62   63 1    
   122   62   64 1    
   123   62  123 1    
   124   63  124 1    
   125   63  125 1    
   126   63  126 1    
   127   64   65 am   BACKBONE|DICT|INTERRES
   128   64  127 1    
   129   65   66 2    
@<TRIPOS>SUBSTRUCTURE
     1 UNK         1 GROUP             0       ****    0 ROOT    
