@<TRIPOS>MOLECULE
3R135
127   129    1
SMALL
USER_CHARGES


@<TRIPOS>ATOM
      1 CA        -82.5759   23.6119  -71.1585 C.3       0 UNK        -0.1998 
      2 C         -81.4291   24.3610  -70.4829 C.2       0 UNK         0.4909 
      3 O         -80.9916   23.9477  -69.4103 O.2       0 UNK        -0.5240 
      4 N         -80.9192   25.4664  -71.0450 N.am      1 UNK        -0.4739 
      5 CA        -81.2757   26.0590  -72.3418 C.3       1 UNK         0.0864 
      6 C6        -80.6980   27.4886  -72.4831 C.3       11 UNK        -0.0881 
      7 S7        -81.4670   28.6530  -71.3044 S.3       11 UNK        -0.2682 
      8 C8        -80.0150   29.3654  -70.4506 C.3       11 UNK         0.0289 
      9 C9        -79.0019   30.0605  -71.3628 C.ar      11 UNK        -0.0687 
     10 C10       -79.3704   30.6332  -72.5856 C.ar      11 UNK        -0.0823 
     11 C11       -78.4120   31.2107  -73.4216 C.ar      11 UNK        -0.0830 
     12 C12       -77.0771   31.2533  -73.0133 C.ar      11 UNK        -0.1021 
     13 C13       -76.6903   30.7020  -71.7892 C.ar      11 UNK        -0.0753 
     14 C14       -77.6629   30.1205  -70.9653 C.ar      11 UNK        -0.0933 
     15 C15       -75.2201   30.7474  -71.3839 C.3       11 UNK         0.0166 
     16 S16       -74.6593   29.2254  -70.5557 S.3       11 UNK        -0.2615 
     17 C17       -72.8452   29.3745  -70.7105 C.3       11 UNK        -0.0865 
     18 CA        -72.2301   28.3255  -71.6733 C.3       10 UNK         0.0862 
     19 C         -72.3769   26.8736  -71.1373 C.2       10 UNK         0.5551 
     20 N         -73.2065   26.0237  -71.7326 N.am      10 UNK        -0.7319 
     21 O         -71.7094   26.5081  -70.1727 O.2       10 UNK        -0.5018 
     22 N         -72.6963   28.4812  -73.0582 N.am      10 UNK        -0.4509 
     23 C         -72.0970   29.2107  -74.0024 C.2       10 UNK         0.4899 
     24 O         -71.1707   29.9942  -73.7849 O.2       10 UNK        -0.4839 
     25 CA        -72.5989   28.9693  -75.4413 C.3       9 UNK         0.0222 
     26 CB        -71.8137   29.7688  -76.5014 C.3       9 UNK        -0.1966 
     27 N         -72.6248   27.5378  -75.7845 N.am      9 UNK        -0.4218 
     28 C         -71.6021   26.6687  -75.7136 C.2       9 UNK         0.5020 
     29 O         -70.4435   26.9806  -75.4345 O.2       9 UNK        -0.5274 
     30 CA        -71.9205   25.1876  -75.9743 C.3       8 UNK         0.0270 
     31 CB        -72.3372   24.4856  -74.6746 C.3       8 UNK        -0.1976 
     32 N         -72.9540   24.9753  -76.9887 N.am      8 UNK        -0.4313 
     33 C         -72.7230   25.0468  -78.3058 C.2       8 UNK         0.5041 
     34 O         -71.6452   25.3851  -78.7972 O.2       8 UNK        -0.5577 
     35 CA        -73.8779   24.6561  -79.2324 C.3       7 UNK         0.0284 
     36 CB        -74.1744   23.1478  -79.1473 C.3       7 UNK        -0.1958 
     37 N         -75.0848   25.4179  -78.9113 N.am      7 UNK        -0.4454 
     38 C         -75.6282   26.3319  -79.7240 C.2       7 UNK         0.5089 
     39 O         -75.1604   26.6435  -80.8203 O.2       7 UNK        -0.5125 
     40 CA        -76.9314   27.0034  -79.2667 C.3       6 UNK         0.0408 
     41 CB        -78.1477   26.2323  -79.8042 C.3       6 UNK        -0.1791 
     42 N         -77.0727   27.1730  -77.8198 N.am      6 UNK        -0.4762 
     43 C         -76.3618   28.0365  -77.0796 C.2       6 UNK         0.5007 
     44 O         -75.3440   28.6046  -77.4733 O.2       6 UNK        -0.5032 
     45 CA        -76.9114   28.3334  -75.6722 C.3       5 UNK         0.0783 
     46 C46       -78.2597   29.0993  -75.7569 C.3       11 UNK        -0.0857 
     47 S47       -78.0056   30.8657  -76.1615 S.3       11 UNK        -0.2512 
     48 C48       -78.8210   31.7461  -74.7862 C.3       11 UNK         0.0225 
     49 N         -77.0434   27.0844  -74.9281 N.am      5 UNK        -0.4615 
     50 C         -76.0925   26.5508  -74.1489 C.2       4 UNK         0.5053 
     51 O         -75.0242   27.0983  -73.8753 O.2       4 UNK        -0.5105 
     52 CA        -76.3497   25.1295  -73.6208 C.3       4 UNK         0.0263 
     53 CB        -77.0321   25.1853  -72.2461 C.3       4 UNK        -0.1981 
     54 N         -77.1321   24.3109  -74.5531 N.am      4 UNK        -0.4224 
     55 C         -76.7207   23.9946  -75.7931 C.2       3 UNK         0.4895 
     56 O         -75.6170   24.3071  -76.2454 O.2       3 UNK        -0.5091 
     57 CA        -77.7077   23.2618  -76.7181 C.3       3 UNK         0.0250 
     58 CB        -77.4218   21.7525  -76.7116 C.3       3 UNK        -0.1996 
     59 N         -79.1226   23.4893  -76.4096 N.am      3 UNK        -0.4254 
     60 C         -79.7420   24.6780  -76.3655 C.2       2 UNK         0.5004 
     61 O         -79.1779   25.7535  -76.5785 O.2       2 UNK        -0.5226 
     62 CA        -81.2288   24.6844  -75.9597 C.3       2 UNK         0.0269 
     63 CB        -81.8735   23.2805  -75.8875 C.3       2 UNK        -0.1926 
     64 N         -81.4458   25.4017  -74.6960 N.am      2 UNK        -0.4687 
     65 C         -80.8304   25.1725  -73.5254 C.2       1 UNK         0.5165 
     66 O         -79.9546   24.3172  -73.3668 O.2       1 UNK        -0.5079 
     67 H67       -83.3717   24.2877  -71.4683 H         1 UNK         0.0900 
     68 H68       -83.0141   22.8904  -70.4691 H         1 UNK         0.0900 
     69 H69       -82.2180   23.0614  -72.0279 H         1 UNK         0.0900 
     70 H70       -80.1646   25.9315  -70.5636 H         1 UNK         0.2959 
     71 H71       -82.3636   26.1349  -72.3894 H         1 UNK         0.1079 
     72 H72       -79.6143   27.4819  -72.3537 H         1 UNK         0.0837 
     73 H73       -80.8764   27.8889  -73.4831 H         1 UNK         0.0837 
     74 H74       -80.3669   30.0865  -69.7120 H         1 UNK         0.0685 
     75 H75       -79.5250   28.5653  -69.8935 H         1 UNK         0.0685 
     76 H76       -80.4020   30.6062  -72.9066 H         1 UNK         0.1434 
     77 H77       -76.3367   31.6979  -73.6645 H         1 UNK         0.1329 
     78 H78       -77.3741   29.6943  -70.0145 H         1 UNK         0.1335 
     79 H79       -74.5994   30.9068  -72.2674 H         1 UNK         0.0680 
     80 H80       -75.0552   31.5989  -70.7228 H         1 UNK         0.0680 
     81 H81       -72.4073   29.2747  -69.7156 H         1 UNK         0.1032 
     82 H82       -72.5797   30.3791  -71.0426 H         1 UNK         0.1032 
     83 H83       -71.1517   28.4974  -71.6774 H         1 UNK         0.0461 
     84 H84       -73.2802   25.0870  -71.3707 H         1 UNK         0.3453 
     85 H85       -73.8117   26.3292  -72.4818 H         1 UNK         0.3453 
     86 H86       -73.4927   27.9088  -73.3276 H         1 UNK         0.2984 
     87 H87       -73.6329   29.3149  -75.4649 H         1 UNK         0.0554 
     88 H88       -72.2253   29.6096  -77.4981 H         1 UNK         0.0847 
     89 H89       -70.7602   29.4884  -76.5237 H         1 UNK         0.0847 
     90 H90       -71.8621   30.8392  -76.2980 H         1 UNK         0.0847 
     91 H91       -73.5369   27.1667  -76.0091 H         1 UNK         0.3141 
     92 H92       -70.9985   24.7145  -76.3203 H         1 UNK         0.0743 
     93 H93       -73.2766   24.8822  -74.2963 H         1 UNK         0.0784 
     94 H94       -72.4618   23.4129  -74.8236 H         1 UNK         0.0784 
     95 H95       -71.5856   24.6218  -73.8956 H         1 UNK         0.0784 
     96 H96       -73.8737   24.6805  -76.6639 H         1 UNK         0.3213 
     97 H97       -73.5521   24.8628  -80.2543 H         1 UNK         0.0855 
     98 H98       -74.4872   22.8420  -78.1492 H         1 UNK         0.0814 
     99 H99       -73.2891   22.5638  -79.4021 H         1 UNK         0.0814 
    100 H100      -74.9619   22.8615  -79.8445 H         1 UNK         0.0814 
    101 H101      -75.5086   25.2446  -78.0064 H         1 UNK         0.3105 
    102 H102      -76.9498   28.0007  -79.7116 H         1 UNK         0.0547 
    103 H103      -78.0975   26.1297  -80.8891 H         1 UNK         0.0837 
    104 H104      -78.2092   25.2282  -79.3852 H         1 UNK         0.0837 
    105 H105      -79.0793   26.7484  -79.5719 H         1 UNK         0.0837 
    106 H106      -77.8779   26.7175  -77.3924 H         1 UNK         0.3020 
    107 H107      -76.1891   28.9699  -75.1546 H         1 UNK         0.1245 
    108 H108      -78.7903   29.0130  -74.8097 H         1 UNK         0.0781 
    109 H109      -78.9356   28.6616  -76.4942 H         1 UNK         0.0781 
    110 H110      -79.9014   31.6784  -74.9232 H         1 UNK         0.0836 
    111 H111      -78.5714   32.8063  -74.8453 H         1 UNK         0.0836 
    112 H112      -77.8571   26.5234  -75.1509 H         1 UNK         0.3022 
    113 H113      -75.3856   24.6369  -73.4919 H         1 UNK         0.0747 
    114 H114      -77.2274   24.1865  -71.8555 H         1 UNK         0.0793 
    115 H115      -76.4011   25.7013  -71.5209 H         1 UNK         0.0793 
    116 H116      -77.9792   25.7211  -72.2857 H         1 UNK         0.0793 
    117 H117      -78.0683   24.0514  -74.2584 H         1 UNK         0.3047 
    118 H118      -77.5319   23.6342  -77.7285 H         1 UNK         0.0822 
    119 H119      -78.0336   21.2287  -77.4462 H         1 UNK         0.0807 
    120 H120      -77.6153   21.3092  -75.7339 H         1 UNK         0.0807 
    121 H121      -76.3789   21.5499  -76.9600 H         1 UNK         0.0807 
    122 H122      -79.6672   22.6700  -76.1824 H         1 UNK         0.2946 
    123 H123      -81.7457   25.2480  -76.7385 H         1 UNK         0.1144 
    124 H124      -81.7742   22.7480  -76.8346 H         1 UNK         0.0793 
    125 H125      -82.9412   23.3551  -75.6803 H         1 UNK         0.0793 
    126 H126      -81.4341   22.6606  -75.1048 H         1 UNK         0.0793 
    127 H127      -82.1238   26.1502  -74.7417 H         1 UNK         0.2896 
@<TRIPOS>BOND
     1    1    2 1    
     2    1   67 1    
     3    1   68 1    
     4    1   69 1    
     5    2    3 2    
     6    2    4 am   BACKBONE|DICT|INTERRES
     7    4    5 1    
     8    4   70 1    
     9    5    6 1    
    10    5   65 1    
    11    5   71 1    
    12    6    7 1    
    13    6   72 1    
    14    6   73 1    
    15    7    8 1    
    16    8    9 1    
    17    8   74 1    
    18    8   75 1    
    19    9   10 ar   
    20    9   14 ar   
    21   10   11 ar   
    22   10   76 1    
    23   11   12 ar   
    24   11   48 1    
    25   12   13 ar   
    26   12   77 1    
    27   13   14 ar   
    28   13   15 1    
    29   14   78 1    
    30   15   16 1    
    31   15   79 1    
    32   15   80 1    
    33   16   17 1    
    34   17   18 1    
    35   17   81 1    
    36   17   82 1    
    37   18   19 1    
    38   18   22 1    
    39   18   83 1    
    40   19   20 am   BACKBONE|DICT|INTERRES
    41   19   21 2    
    42   20   84 1    
    43   20   85 1    
    44   22   23 am   BACKBONE|DICT|INTERRES
    45   22   86 1    
    46   23   24 2    
    47   23   25 1    
    48   25   26 1    
    49   25   27 1    
    50   25   87 1    
    51   26   88 1    
    52   26   89 1    
    53   26   90 1    
    54   27   28 am   BACKBONE|DICT|INTERRES
    55   27   91 1    
    56   28   29 2    
    57   28   30 1    
    58   30   31 1    
    59   30   32 1    
    60   30   92 1    
    61   31   93 1    
    62   31   94 1    
    63   31   95 1    
    64   32   33 am   BACKBONE|DICT|INTERRES
    65   32   96 1    
    66   33   34 2    
    67   33   35 1    
    68   35   36 1    
    69   35   37 1    
    70   35   97 1    
    71   36   98 1    
    72   36   99 1    
    73   36  100 1    
    74   37   38 am   BACKBONE|DICT|INTERRES
    75   37  101 1    
    76   38   39 2    
    77   38   40 1    
    78   40   41 1    
    79   40   42 1    
    80   40  102 1    
    81   41  103 1    
    82   41  104 1    
    83   41  105 1    
    84   42   43 am   BACKBONE|DICT|INTERRES
    85   42  106 1    
    86   43   44 2    
    87   43   45 1    
    88   45   46 1    
    89   45   49 1    
    90   45  107 1    
    91   46   47 1    
    92   46  108 1    
    93   46  109 1    
    94   47   48 1    
    95   48  110 1    
    96   48  111 1    
    97   49   50 am   BACKBONE|DICT|INTERRES
    98   49  112 1    
    99   50   51 2    
   100   50   52 1    
   101   52   53 1    
   102   52   54 1    
   103   52  113 1    
   104   53  114 1    
   105   53  115 1    
   106   53  116 1    
   107   54   55 am   BACKBONE|DICT|INTERRES
   108   54  117 1    
   109   55   56 2    
   110   55   57 1    
   111   57   58 1    
   112   57   59 1    
   113   57  118 1    
   114   58  119 1    
   115   58  120 1    
   116   58  121 1    
   117   59   60 am   BACKBONE|DICT|INTERRES
   118   59  122 1    
   119   60   61 2    
   120   60   62 1    
   121   62   63 1    
   122   62   64 1    
   123   62  123 1    
   124   63  124 1    
   125   63  125 1    
   126   63  126 1    
   127   64   65 am   BACKBONE|DICT|INTERRES
   128   64  127 1    
   129   65   66 2    
@<TRIPOS>SUBSTRUCTURE
     1 UNK         1 GROUP             0       ****    0 ROOT    
