@<TRIPOS>MOLECULE
3R135
127   129    1
SMALL
USER_CHARGES


@<TRIPOS>ATOM
      1 CA        -84.4498   25.5817  -73.7431 C.3       0 UNK        -0.1998 
      2 C         -83.3030   26.5329  -74.0469 C.2       0 UNK         0.4909 
      3 O         -83.1430   26.9574  -75.1920 O.2       0 UNK        -0.5240 
      4 N         -82.5058   26.8772  -73.0273 N.am      1 UNK        -0.4739 
      5 CA        -81.3643   27.7904  -73.1367 C.3       1 UNK         0.0864 
      6 C6        -80.8901   28.2841  -71.7458 C.3       11 UNK        -0.0881 
      7 S7        -80.1902   26.9878  -70.6591 S.3       11 UNK        -0.2682 
      8 C8        -78.7391   27.8277  -69.9413 C.3       11 UNK         0.0289 
      9 C9        -77.6276   28.0494  -70.9591 C.ar      11 UNK        -0.0687 
     10 C10       -76.7390   27.0166  -71.2711 C.ar      11 UNK        -0.0823 
     11 C11       -75.7170   27.2086  -72.2116 C.ar      11 UNK        -0.0830 
     12 C12       -75.5775   28.4627  -72.8169 C.ar      11 UNK        -0.1021 
     13 C13       -76.4455   29.5103  -72.4948 C.ar      11 UNK        -0.0753 
     14 C14       -77.4693   29.2956  -71.5697 C.ar      11 UNK        -0.0933 
     15 C15       -76.2890   30.8777  -73.1433 C.3       11 UNK         0.0166 
     16 S16       -75.7249   32.1309  -71.9498 S.3       11 UNK        -0.2615 
     17 C17       -73.9561   31.7100  -71.7859 C.3       11 UNK        -0.0865 
     18 CA        -73.0562   32.6419  -72.6481 C.3       10 UNK         0.0862 
     19 C         -72.6898   33.9767  -71.9411 C.2       10 UNK         0.5551 
     20 N         -73.6788   34.7585  -71.5339 N.am      10 UNK        -0.7319 
     21 O         -71.5195   34.3119  -71.7586 O.2       10 UNK        -0.5018 
     22 N         -71.8464   31.9702  -73.1315 N.am      10 UNK        -0.4509 
     23 C         -71.7864   31.0472  -74.0951 C.2       10 UNK         0.4899 
     24 O         -72.7786   30.5749  -74.6538 O.2       10 UNK        -0.4839 
     25 CA        -70.3668   30.6406  -74.5340 C.3       9 UNK         0.0222 
     26 CB        -69.4796   30.1951  -73.3487 C.3       9 UNK        -0.1966 
     27 N         -70.3621   29.6535  -75.6222 N.am      9 UNK        -0.4218 
     28 C         -70.6471   28.3441  -75.5628 C.2       9 UNK         0.5020 
     29 O         -70.9142   27.7294  -74.5264 O.2       9 UNK        -0.5274 
     30 CA        -70.5578   27.5977  -76.9087 C.3       8 UNK         0.0270 
     31 CB        -69.1067   27.5670  -77.4255 C.3       8 UNK        -0.1976 
     32 N         -71.0411   26.2188  -76.8226 N.am      8 UNK        -0.4313 
     33 C         -72.3251   25.8500  -76.7691 C.2       8 UNK         0.5041 
     34 O         -73.2794   26.6320  -76.8181 O.2       8 UNK        -0.5577 
     35 CA        -72.5759   24.3426  -76.6479 C.3       7 UNK         0.0284 
     36 CB        -72.3015   23.8422  -75.2177 C.3       7 UNK        -0.1958 
     37 N         -73.9627   24.0585  -76.9978 N.am      7 UNK        -0.4454 
     38 C         -74.4028   22.9585  -77.6176 C.2       7 UNK         0.5089 
     39 O         -73.6668   22.0509  -78.0107 O.2       7 UNK        -0.5125 
     40 CA        -75.9312   22.8572  -77.7954 C.3       6 UNK         0.0408 
     41 CB        -76.3945   21.4796  -78.3128 C.3       6 UNK        -0.1791 
     42 N         -76.6569   23.2207  -76.5725 N.am      6 UNK        -0.4762 
     43 C         -76.5375   22.6561  -75.3582 C.2       6 UNK         0.5007 
     44 O         -75.8117   21.6931  -75.1061 O.2       6 UNK        -0.5032 
     45 CA        -77.3995   23.2692  -74.2374 C.3       5 UNK         0.0783 
     46 C46       -76.8122   24.6128  -73.7433 C.3       11 UNK        -0.0857 
     47 S47       -75.4463   24.4098  -72.5594 S.3       11 UNK        -0.2512 
     48 C48       -74.7341   26.0934  -72.5748 C.3       11 UNK         0.0225 
     49 N         -78.7961   23.4301  -74.6458 N.am      5 UNK        -0.4615 
     50 C         -79.6275   22.4428  -75.0047 C.2       4 UNK         0.5053 
     51 O         -79.3349   21.2475  -74.9755 O.2       4 UNK        -0.5105 
     52 CA        -81.0250   22.8645  -75.4816 C.3       4 UNK         0.0263 
     53 CB        -81.9879   22.9881  -74.2911 C.3       4 UNK        -0.1981 
     54 N         -80.9819   24.1277  -76.2235 N.am      4 UNK        -0.4224 
     55 C         -80.6322   24.2243  -77.5147 C.2       3 UNK         0.4895 
     56 O         -80.4147   23.2533  -78.2400 O.2       3 UNK        -0.5091 
     57 CA        -80.4849   25.6398  -78.1005 C.3       3 UNK         0.0250 
     58 CB        -81.8312   26.1398  -78.6482 C.3       3 UNK        -0.1996 
     59 N         -79.9571   26.6131  -77.1413 N.am      3 UNK        -0.4254 
     60 C         -78.7106   26.5987  -76.6460 C.2       2 UNK         0.5004 
     61 O         -77.8544   25.7755  -76.9683 O.2       2 UNK        -0.5226 
     62 CA        -78.3711   27.6562  -75.5781 C.3       2 UNK         0.0269 
     63 CB        -77.7865   28.9117  -76.2427 C.3       2 UNK        -0.1926 
     64 N         -79.5001   28.0363  -74.7190 N.am      2 UNK        -0.4687 
     65 C         -80.2249   27.1815  -73.9823 C.2       1 UNK         0.5165 
     66 O         -80.0367   25.9614  -73.9768 O.2       1 UNK        -0.5079 
     67 H67       -85.3579   26.1461  -73.5339 H         1 UNK         0.0900 
     68 H68       -84.6442   24.9348  -74.5979 H         1 UNK         0.0900 
     69 H69       -84.2300   24.9502  -72.8824 H         1 UNK         0.0900 
     70 H70       -82.6464   26.4670  -72.1150 H         1 UNK         0.2959 
     71 H71       -81.7266   28.6672  -73.6788 H         1 UNK         0.1079 
     72 H72       -80.1692   29.0896  -71.8761 H         1 UNK         0.0837 
     73 H73       -81.7284   28.7412  -71.2176 H         1 UNK         0.0837 
     74 H74       -79.0519   28.7752  -69.4996 H         1 UNK         0.0685 
     75 H75       -78.3582   27.2224  -69.1175 H         1 UNK         0.0685 
     76 H76       -76.8551   26.0586  -70.7838 H         1 UNK         0.1434 
     77 H77       -74.7847   28.6289  -73.5349 H         1 UNK         0.1329 
     78 H78       -78.1349   30.1095  -71.3177 H         1 UNK         0.1335 
     79 H79       -77.2515   31.1913  -73.5495 H         1 UNK         0.0680 
     80 H80       -75.5966   30.8383  -73.9862 H         1 UNK         0.0680 
     81 H81       -73.6728   31.7514  -70.7326 H         1 UNK         0.1032 
     82 H82       -73.8239   30.6667  -72.0736 H         1 UNK         0.1032 
     83 H83       -73.6046   32.9311  -73.5471 H         1 UNK         0.0461 
     84 H84       -73.4663   35.6296  -71.0735 H         1 UNK         0.3453 
     85 H85       -74.6383   34.4723  -71.6614 H         1 UNK         0.3453 
     86 H86       -70.9913   32.3537  -72.7490 H         1 UNK         0.2984 
     87 H87       -69.9134   31.5368  -74.9604 H         1 UNK         0.0554 
     88 H88       -69.2812   31.0222  -72.6666 H         1 UNK         0.0847 
     89 H89       -68.5120   29.8292  -73.6922 H         1 UNK         0.0847 
     90 H90       -69.9481   29.4027  -72.7641 H         1 UNK         0.0847 
     91 H91       -70.1799   30.0421  -76.5371 H         1 UNK         0.3141 
     92 H92       -71.1767   28.1334  -77.6321 H         1 UNK         0.0743 
     93 H93       -68.7176   28.5726  -77.5887 H         1 UNK         0.0784 
     94 H94       -68.4383   27.0712  -76.7200 H         1 UNK         0.0784 
     95 H95       -69.0361   27.0425  -78.3788 H         1 UNK         0.0784 
     96 H96       -70.3323   25.5061  -76.7279 H         1 UNK         0.3213 
     97 H97       -71.9093   23.8326  -77.3472 H         1 UNK         0.0855 
     98 H98       -72.9377   24.3444  -74.4886 H         1 UNK         0.0814 
     99 H99       -71.2663   24.0218  -74.9257 H         1 UNK         0.0814 
    100 H100      -72.4811   22.7702  -75.1318 H         1 UNK         0.0814 
    101 H101      -74.6130   24.8036  -76.7810 H         1 UNK         0.3105 
    102 H102      -76.2046   23.6010  -78.5452 H         1 UNK         0.0547 
    103 H103      -77.4762   21.4509  -78.4451 H         1 UNK         0.0837 
    104 H104      -75.9432   21.2536  -79.2795 H         1 UNK         0.0837 
    105 H105      -76.1188   20.6758  -77.6295 H         1 UNK         0.0837 
    106 H106      -77.2521   24.0436  -76.6585 H         1 UNK         0.3020 
    107 H107      -77.4036   22.5618  -73.4049 H         1 UNK         0.1245 
    108 H108      -77.5845   25.1872  -73.2302 H         1 UNK         0.0781 
    109 H109      -76.4787   25.2343  -74.5757 H         1 UNK         0.0781 
    110 H110      -74.3107   26.2754  -73.5645 H         1 UNK         0.0836 
    111 H111      -73.8991   26.1252  -71.8740 H         1 UNK         0.0836 
    112 H112      -79.1658   24.3759  -74.6154 H         1 UNK         0.3022 
    113 H113      -81.4033   22.0778  -76.1382 H         1 UNK         0.0747 
    114 H114      -81.6987   23.7930  -73.6144 H         1 UNK         0.0793 
    115 H115      -83.0056   23.1750  -74.6304 H         1 UNK         0.0793 
    116 H116      -82.0088   22.0655  -73.7093 H         1 UNK         0.0793 
    117 H117      -81.1014   24.9772  -75.6859 H         1 UNK         0.3047 
    118 H118      -79.7804   25.5772  -78.9329 H         1 UNK         0.0822 
    119 H119      -82.2356   25.4434  -79.3842 H         1 UNK         0.0807 
    120 H120      -81.7250   27.1056  -79.1424 H         1 UNK         0.0807 
    121 H121      -82.5751   26.2466  -77.8575 H         1 UNK         0.0807 
    122 H122      -80.5997   27.3152  -76.8025 H         1 UNK         0.2946 
    123 H123      -77.6042   27.2323  -74.9282 H         1 UNK         0.1144 
    124 H124      -77.4486   29.6336  -75.5009 H         1 UNK         0.0793 
    125 H125      -78.5146   29.4058  -76.8870 H         1 UNK         0.0793 
    126 H126      -76.9224   28.6588  -76.8593 H         1 UNK         0.0793 
    127 H127      -79.7165   29.0218  -74.6767 H         1 UNK         0.2896 
@<TRIPOS>BOND
     1    1    2 1    
     2    1   67 1    
     3    1   68 1    
     4    1   69 1    
     5    2    3 2    
     6    2    4 am   BACKBONE|DICT|INTERRES
     7    4    5 1    
     8    4   70 1    
     9    5    6 1    
    10    5   65 1    
    11    5   71 1    
    12    6    7 1    
    13    6   72 1    
    14    6   73 1    
    15    7    8 1    
    16    8    9 1    
    17    8   74 1    
    18    8   75 1    
    19    9   10 ar   
    20    9   14 ar   
    21   10   11 ar   
    22   10   76 1    
    23   11   12 ar   
    24   11   48 1    
    25   12   13 ar   
    26   12   77 1    
    27   13   14 ar   
    28   13   15 1    
    29   14   78 1    
    30   15   16 1    
    31   15   79 1    
    32   15   80 1    
    33   16   17 1    
    34   17   18 1    
    35   17   81 1    
    36   17   82 1    
    37   18   19 1    
    38   18   22 1    
    39   18   83 1    
    40   19   20 am   BACKBONE|DICT|INTERRES
    41   19   21 2    
    42   20   84 1    
    43   20   85 1    
    44   22   23 am   BACKBONE|DICT|INTERRES
    45   22   86 1    
    46   23   24 2    
    47   23   25 1    
    48   25   26 1    
    49   25   27 1    
    50   25   87 1    
    51   26   88 1    
    52   26   89 1    
    53   26   90 1    
    54   27   28 am   BACKBONE|DICT|INTERRES
    55   27   91 1    
    56   28   29 2    
    57   28   30 1    
    58   30   31 1    
    59   30   32 1    
    60   30   92 1    
    61   31   93 1    
    62   31   94 1    
    63   31   95 1    
    64   32   33 am   BACKBONE|DICT|INTERRES
    65   32   96 1    
    66   33   34 2    
    67   33   35 1    
    68   35   36 1    
    69   35   37 1    
    70   35   97 1    
    71   36   98 1    
    72   36   99 1    
    73   36  100 1    
    74   37   38 am   BACKBONE|DICT|INTERRES
    75   37  101 1    
    76   38   39 2    
    77   38   40 1    
    78   40   41 1    
    79   40   42 1    
    80   40  102 1    
    81   41  103 1    
    82   41  104 1    
    83   41  105 1    
    84   42   43 am   BACKBONE|DICT|INTERRES
    85   42  106 1    
    86   43   44 2    
    87   43   45 1    
    88   45   46 1    
    89   45   49 1    
    90   45  107 1    
    91   46   47 1    
    92   46  108 1    
    93   46  109 1    
    94   47   48 1    
    95   48  110 1    
    96   48  111 1    
    97   49   50 am   BACKBONE|DICT|INTERRES
    98   49  112 1    
    99   50   51 2    
   100   50   52 1    
   101   52   53 1    
   102   52   54 1    
   103   52  113 1    
   104   53  114 1    
   105   53  115 1    
   106   53  116 1    
   107   54   55 am   BACKBONE|DICT|INTERRES
   108   54  117 1    
   109   55   56 2    
   110   55   57 1    
   111   57   58 1    
   112   57   59 1    
   113   57  118 1    
   114   58  119 1    
   115   58  120 1    
   116   58  121 1    
   117   59   60 am   BACKBONE|DICT|INTERRES
   118   59  122 1    
   119   60   61 2    
   120   60   62 1    
   121   62   63 1    
   122   62   64 1    
   123   62  123 1    
   124   63  124 1    
   125   63  125 1    
   126   63  126 1    
   127   64   65 am   BACKBONE|DICT|INTERRES
   128   64  127 1    
   129   65   66 2    
@<TRIPOS>SUBSTRUCTURE
     1 UNK         1 GROUP             0       ****    0 ROOT    
