@<TRIPOS>MOLECULE
3R135
127   129    1
SMALL
USER_CHARGES


@<TRIPOS>ATOM
      1 CA        -84.1480   25.0693  -74.8455 C.3       0 UNK        -0.1998 
      2 C         -83.0074   25.9790  -75.2743 C.2       0 UNK         0.4909 
      3 O         -82.7519   26.1172  -76.4713 O.2       0 UNK        -0.5240 
      4 N         -82.3104   26.5943  -74.3085 N.am      1 UNK        -0.4739 
      5 CA        -81.1481   27.4626  -74.5302 C.3       1 UNK         0.0864 
      6 C6        -80.6640   28.1024  -73.2074 C.3       11 UNK        -0.0881 
      7 S7        -79.7133   29.6363  -73.4779 S.3       11 UNK        -0.2682 
      8 C8        -79.3779   30.1618  -71.7647 C.3       11 UNK         0.0289 
      9 C9        -78.1891   29.4213  -71.1676 C.ar      11 UNK        -0.0687 
     10 C10       -78.3630   28.1594  -70.5938 C.ar      11 UNK        -0.0823 
     11 C11       -77.2713   27.4460  -70.0919 C.ar      11 UNK        -0.0830 
     12 C12       -76.0039   28.0367  -70.1023 C.ar      11 UNK        -0.1021 
     13 C13       -75.8235   29.3205  -70.6272 C.ar      11 UNK        -0.0753 
     14 C14       -76.9154   29.9996  -71.1781 C.ar      11 UNK        -0.0933 
     15 C15       -74.4580   29.9873  -70.5567 C.3       11 UNK         0.0166 
     16 S16       -73.3631   29.4637  -71.9111 S.3       11 UNK        -0.2615 
     17 C17       -71.8362   30.3536  -71.4485 C.3       11 UNK        -0.0865 
     18 CA        -71.5699   31.5878  -72.3477 C.3       10 UNK         0.0862 
     19 C         -70.4313   32.4600  -71.7501 C.2       10 UNK         0.5551 
     20 N         -70.7714   33.4621  -70.9515 N.am      10 UNK        -0.7319 
     21 O         -69.2476   32.2067  -71.9679 O.2       10 UNK        -0.5018 
     22 N         -71.2896   31.1818  -73.7315 N.am      10 UNK        -0.4509 
     23 C         -71.1983   32.0091  -74.7809 C.2       10 UNK         0.4899 
     24 O         -71.4388   33.2156  -74.7238 O.2       10 UNK        -0.4839 
     25 CA        -70.7522   31.4007  -76.1256 C.3       9 UNK         0.0222 
     26 CB        -69.3170   31.8414  -76.4598 C.3       9 UNK        -0.1966 
     27 N         -70.8215   29.9352  -76.1634 N.am      9 UNK        -0.4218 
     28 C         -71.9546   29.2318  -76.2814 C.2       9 UNK         0.5020 
     29 O         -73.0724   29.7421  -76.3936 O.2       9 UNK        -0.5274 
     30 CA        -71.8066   27.7032  -76.2168 C.3       8 UNK         0.0270 
     31 CB        -71.7770   27.2239  -74.7556 C.3       8 UNK        -0.1976 
     32 N         -72.9140   27.0417  -76.9008 N.am      8 UNK        -0.4313 
     33 C         -73.0400   26.8986  -78.2233 C.2       8 UNK         0.5041 
     34 O         -72.1646   27.2229  -79.0289 O.2       8 UNK        -0.5577 
     35 CA        -74.3623   26.2738  -78.7184 C.3       7 UNK         0.0284 
     36 CB        -74.4051   26.1036  -80.2487 C.3       7 UNK        -0.1958 
     37 N         -74.6554   24.9804  -78.0889 N.am      7 UNK        -0.4454 
     38 C         -75.1008   24.8091  -76.8380 C.2       7 UNK         0.5089 
     39 O         -75.2820   25.7467  -76.0565 O.2       7 UNK        -0.5125 
     40 CA        -75.3904   23.3574  -76.4128 C.3       6 UNK         0.0408 
     41 CB        -74.0920   22.5379  -76.2544 C.3       6 UNK        -0.1791 
     42 N         -76.2425   23.2904  -75.2167 N.am      6 UNK        -0.4762 
     43 C         -75.9206   23.5653  -73.9415 C.2       6 UNK         0.5007 
     44 O         -74.7714   23.7804  -73.5532 O.2       6 UNK        -0.5032 
     45 CA        -77.0710   23.6078  -72.9127 C.3       5 UNK         0.0783 
     46 C46       -77.0463   24.9300  -72.1032 C.3       11 UNK        -0.0857 
     47 S47       -78.2585   24.9210  -70.7377 S.3       11 UNK        -0.2512 
     48 C48       -77.4652   26.0409  -69.5347 C.3       11 UNK         0.0225 
     49 N         -78.3829   23.3978  -73.5388 N.am      5 UNK        -0.4615 
     50 C         -79.0383   22.2326  -73.5743 C.2       4 UNK         0.5053 
     51 O         -78.5631   21.1661  -73.1844 O.2       4 UNK        -0.5105 
     52 CA        -80.4681   22.2639  -74.1296 C.3       4 UNK         0.0263 
     53 CB        -81.4166   22.9509  -73.1314 C.3       4 UNK        -0.1981 
     54 N         -80.5318   22.9612  -75.4158 N.am      4 UNK        -0.4224 
     55 C         -80.7042   22.3597  -76.6025 C.2       3 UNK         0.4895 
     56 O         -80.7926   21.1392  -76.7417 O.2       3 UNK        -0.5091 
     57 CA        -80.8225   23.2515  -77.8540 C.3       3 UNK         0.0250 
     58 CB        -82.2789   23.3002  -78.3450 C.3       3 UNK        -0.1996 
     59 N         -80.3374   24.6170  -77.6360 N.am      3 UNK        -0.4254 
     60 C         -79.0404   24.9569  -77.6734 C.2       2 UNK         0.5004 
     61 O         -78.1476   24.1701  -77.9830 O.2       2 UNK        -0.5226 
     62 CA        -78.6569   26.3970  -77.2791 C.3       2 UNK         0.0269 
     63 CB        -78.3747   27.2418  -78.5315 C.3       2 UNK        -0.1926 
     64 N         -79.6448   27.0823  -76.4395 N.am      2 UNK        -0.4687 
     65 C         -80.0195   26.6718  -75.2206 C.2       1 UNK         0.5165 
     66 O         -79.5632   25.6672  -74.6688 O.2       1 UNK        -0.5079 
     67 H67       -85.0889   25.4271  -75.2624 H         1 UNK         0.0900 
     68 H68       -84.2505   25.0267  -73.7614 H         1 UNK         0.0900 
     69 H69       -83.9769   24.0569  -75.2103 H         1 UNK         0.0900 
     70 H70       -82.5552   26.4288  -73.3429 H         1 UNK         0.2959 
     71 H71       -81.4812   28.2596  -75.1990 H         1 UNK         0.1079 
     72 H72       -81.5203   28.3634  -72.5833 H         1 UNK         0.0837 
     73 H73       -80.0738   27.3896  -72.6307 H         1 UNK         0.0837 
     74 H74       -79.1850   31.2357  -71.7625 H         1 UNK         0.0685 
     75 H75       -80.2659   30.0138  -71.1482 H         1 UNK         0.0685 
     76 H76       -79.3471   27.7143  -70.5577 H         1 UNK         0.1434 
     77 H77       -75.1556   27.5041  -69.6941 H         1 UNK         0.1329 
     78 H78       -76.7763   30.9848  -71.6021 H         1 UNK         0.1335 
     79 H79       -74.5648   31.0730  -70.5826 H         1 UNK         0.0680 
     80 H80       -73.9909   29.7472  -69.6002 H         1 UNK         0.0680 
     81 H81       -70.9987   29.6553  -71.5008 H         1 UNK         0.1032 
     82 H82       -71.9025   30.6502  -70.3997 H         1 UNK         0.1032 
     83 H83       -72.4779   32.1945  -72.3682 H         1 UNK         0.0461 
     84 H84       -70.0462   34.0294  -70.5410 H         1 UNK         0.3453 
     85 H85       -71.7389   33.6730  -70.7614 H         1 UNK         0.3453 
     86 H86       -71.0741   30.2075  -73.8710 H         1 UNK         0.2984 
     87 H87       -71.4156   31.7965  -76.8976 H         1 UNK         0.0554 
     88 H88       -69.0053   31.4761  -77.4386 H         1 UNK         0.0847 
     89 H89       -68.6003   31.4811  -75.7205 H         1 UNK         0.0847 
     90 H90       -69.2381   32.9293  -76.4838 H         1 UNK         0.0847 
     91 H91       -69.9461   29.4381  -76.0743 H         1 UNK         0.3141 
     92 H92       -70.8714   27.4160  -76.7027 H         1 UNK         0.0743 
     93 H93       -70.9472   27.6710  -74.2070 H         1 UNK         0.0784 
     94 H94       -72.6961   27.4848  -74.2284 H         1 UNK         0.0784 
     95 H95       -71.6568   26.1419  -74.6963 H         1 UNK         0.0784 
     96 H96       -73.7079   26.7599  -76.3300 H         1 UNK         0.3213 
     97 H97       -75.1558   26.9735  -78.4462 H         1 UNK         0.0855 
     98 H98       -74.2468   27.0580  -80.7528 H         1 UNK         0.0814 
     99 H99       -75.3720   25.7233  -80.5791 H         1 UNK         0.0814 
    100 H100      -73.6342   25.4169  -80.6004 H         1 UNK         0.0814 
    101 H101      -74.5124   24.1626  -78.6640 H         1 UNK         0.3105 
    102 H102      -75.9720   22.8956  -77.2115 H         1 UNK         0.0547 
    103 H103      -73.5881   22.4150  -77.2135 H         1 UNK         0.0837 
    104 H104      -73.3809   23.0199  -75.5830 H         1 UNK         0.0837 
    105 H105      -74.2957   21.5391  -75.8687 H         1 UNK         0.0837 
    106 H106      -77.2249   23.1511  -75.4067 H         1 UNK         0.3020 
    107 H107      -76.8702   22.7925  -72.2137 H         1 UNK         0.1245 
    108 H108      -77.2557   25.7849  -72.7498 H         1 UNK         0.0781 
    109 H109      -76.0560   25.1031  -71.6774 H         1 UNK         0.0781 
    110 H110      -76.5136   25.6084  -69.2215 H         1 UNK         0.0836 
    111 H111      -78.0871   26.0971  -68.6404 H         1 UNK         0.0836 
    112 H112      -78.8420   24.2398  -73.8838 H         1 UNK         0.3022 
    113 H113      -80.8000   21.2293  -74.2402 H         1 UNK         0.0747 
    114 H114      -82.4512   22.8935  -73.4683 H         1 UNK         0.0793 
    115 H115      -81.3690   22.4695  -72.1535 H         1 UNK         0.0793 
    116 H116      -81.1674   24.0031  -72.9878 H         1 UNK         0.0793 
    117 H117      -80.4030   23.9663  -75.3896 H         1 UNK         0.3047 
    118 H118      -80.2235   22.7868  -78.6405 H         1 UNK         0.0822 
    119 H119      -82.3768   23.9151  -79.2397 H         1 UNK         0.0807 
    120 H120      -82.9509   23.7014  -77.5866 H         1 UNK         0.0807 
    121 H121      -82.6376   22.3016  -78.5983 H         1 UNK         0.0807 
    122 H122      -81.0283   25.3117  -77.3695 H         1 UNK         0.2946 
    123 H123      -77.7362   26.3291  -76.6977 H         1 UNK         0.1144 
    124 H124      -77.9847   28.2250  -78.2676 H         1 UNK         0.0793 
    125 H125      -79.2733   27.3843  -79.1330 H         1 UNK         0.0793 
    126 H126      -77.6301   26.7605  -79.1674 H         1 UNK         0.0793 
    127 H127      -80.0892   27.8969  -76.8388 H         1 UNK         0.2896 
@<TRIPOS>BOND
     1    1    2 1    
     2    1   67 1    
     3    1   68 1    
     4    1   69 1    
     5    2    3 2    
     6    2    4 am   BACKBONE|DICT|INTERRES
     7    4    5 1    
     8    4   70 1    
     9    5    6 1    
    10    5   65 1    
    11    5   71 1    
    12    6    7 1    
    13    6   72 1    
    14    6   73 1    
    15    7    8 1    
    16    8    9 1    
    17    8   74 1    
    18    8   75 1    
    19    9   10 ar   
    20    9   14 ar   
    21   10   11 ar   
    22   10   76 1    
    23   11   12 ar   
    24   11   48 1    
    25   12   13 ar   
    26   12   77 1    
    27   13   14 ar   
    28   13   15 1    
    29   14   78 1    
    30   15   16 1    
    31   15   79 1    
    32   15   80 1    
    33   16   17 1    
    34   17   18 1    
    35   17   81 1    
    36   17   82 1    
    37   18   19 1    
    38   18   22 1    
    39   18   83 1    
    40   19   20 am   BACKBONE|DICT|INTERRES
    41   19   21 2    
    42   20   84 1    
    43   20   85 1    
    44   22   23 am   BACKBONE|DICT|INTERRES
    45   22   86 1    
    46   23   24 2    
    47   23   25 1    
    48   25   26 1    
    49   25   27 1    
    50   25   87 1    
    51   26   88 1    
    52   26   89 1    
    53   26   90 1    
    54   27   28 am   BACKBONE|DICT|INTERRES
    55   27   91 1    
    56   28   29 2    
    57   28   30 1    
    58   30   31 1    
    59   30   32 1    
    60   30   92 1    
    61   31   93 1    
    62   31   94 1    
    63   31   95 1    
    64   32   33 am   BACKBONE|DICT|INTERRES
    65   32   96 1    
    66   33   34 2    
    67   33   35 1    
    68   35   36 1    
    69   35   37 1    
    70   35   97 1    
    71   36   98 1    
    72   36   99 1    
    73   36  100 1    
    74   37   38 am   BACKBONE|DICT|INTERRES
    75   37  101 1    
    76   38   39 2    
    77   38   40 1    
    78   40   41 1    
    79   40   42 1    
    80   40  102 1    
    81   41  103 1    
    82   41  104 1    
    83   41  105 1    
    84   42   43 am   BACKBONE|DICT|INTERRES
    85   42  106 1    
    86   43   44 2    
    87   43   45 1    
    88   45   46 1    
    89   45   49 1    
    90   45  107 1    
    91   46   47 1    
    92   46  108 1    
    93   46  109 1    
    94   47   48 1    
    95   48  110 1    
    96   48  111 1    
    97   49   50 am   BACKBONE|DICT|INTERRES
    98   49  112 1    
    99   50   51 2    
   100   50   52 1    
   101   52   53 1    
   102   52   54 1    
   103   52  113 1    
   104   53  114 1    
   105   53  115 1    
   106   53  116 1    
   107   54   55 am   BACKBONE|DICT|INTERRES
   108   54  117 1    
   109   55   56 2    
   110   55   57 1    
   111   57   58 1    
   112   57   59 1    
   113   57  118 1    
   114   58  119 1    
   115   58  120 1    
   116   58  121 1    
   117   59   60 am   BACKBONE|DICT|INTERRES
   118   59  122 1    
   119   60   61 2    
   120   60   62 1    
   121   62   63 1    
   122   62   64 1    
   123   62  123 1    
   124   63  124 1    
   125   63  125 1    
   126   63  126 1    
   127   64   65 am   BACKBONE|DICT|INTERRES
   128   64  127 1    
   129   65   66 2    
@<TRIPOS>SUBSTRUCTURE
     1 UNK         1 GROUP             0       ****    0 ROOT    
