@<TRIPOS>MOLECULE
3R135
127   129    1
SMALL
USER_CHARGES


@<TRIPOS>ATOM
      1 CA        -83.8518   30.7491  -74.3768 C.3       0 UNK        -0.1998 
      2 C         -83.7068   29.8563  -73.1477 C.2       0 UNK         0.4909 
      3 O         -84.3859   30.0921  -72.1498 O.2       0 UNK        -0.5240 
      4 N         -82.8478   28.8295  -73.1578 N.am      1 UNK        -0.4739 
      5 CA        -82.0254   28.3597  -74.2790 C.3       1 UNK         0.0864 
      6 C6        -80.5147   28.7216  -74.1347 C.3       11 UNK        -0.0881 
      7 S7        -80.1432   30.4746  -73.7564 S.3       11 UNK        -0.2682 
      8 C8        -80.1202   30.5369  -71.9279 C.3       11 UNK         0.0289 
      9 C9        -79.0305   29.6648  -71.3195 C.ar      11 UNK        -0.0687 
     10 C10       -79.3184   28.3440  -70.9657 C.ar      11 UNK        -0.0823 
     11 C11       -78.3114   27.4998  -70.4971 C.ar      11 UNK        -0.0830 
     12 C12       -77.0336   28.0146  -70.2705 C.ar      11 UNK        -0.1021 
     13 C13       -76.7289   29.3326  -70.6217 C.ar      11 UNK        -0.0753 
     14 C14       -77.7322   30.1574  -71.1439 C.ar      11 UNK        -0.0933 
     15 C15       -75.2915   29.8168  -70.5180 C.3       11 UNK         0.0166 
     16 S16       -74.2566   28.9151  -71.7128 S.3       11 UNK        -0.2615 
     17 C17       -72.5944   29.6041  -71.4083 C.3       11 UNK        -0.0865 
     18 CA        -72.0549   30.4483  -72.5949 C.3       10 UNK         0.0862 
     19 C         -70.5886   30.8920  -72.3159 C.2       10 UNK         0.5551 
     20 N         -69.5929   30.3771  -73.0282 N.am      10 UNK        -0.7319 
     21 O         -70.3552   31.7151  -71.4344 O.2       10 UNK        -0.5018 
     22 N         -72.2642   29.7666  -73.8820 N.am      10 UNK        -0.4509 
     23 C         -72.1232   30.3089  -75.0968 C.2       10 UNK         0.4899 
     24 O         -71.8004   31.4823  -75.2879 O.2       10 UNK        -0.4839 
     25 CA        -72.4190   29.3920  -76.3004 C.3       9 UNK         0.0222 
     26 CB        -71.5546   29.7332  -77.5321 C.3       9 UNK        -0.1966 
     27 N         -72.3484   27.9569  -75.9943 N.am      9 UNK        -0.4218 
     28 C         -71.2776   27.2446  -75.6108 C.2       9 UNK         0.5020 
     29 O         -70.1664   27.7298  -75.3922 O.2       9 UNK        -0.5274 
     30 CA        -71.4863   25.7288  -75.4328 C.3       8 UNK         0.0270 
     31 CB        -71.9008   25.4088  -73.9871 C.3       8 UNK        -0.1976 
     32 N         -72.4750   25.1733  -76.3643 N.am      8 UNK        -0.4313 
     33 C         -72.3043   25.0934  -77.6929 C.2       8 UNK         0.5041 
     34 O         -71.2528   25.3810  -78.2667 O.2       8 UNK        -0.5577 
     35 CA        -73.5146   24.6437  -78.5301 C.3       7 UNK         0.0284 
     36 CB        -73.6163   23.1106  -78.5683 C.3       7 UNK        -0.1958 
     37 N         -74.7771   25.2209  -78.0584 N.am      7 UNK        -0.4454 
     38 C         -75.0809   26.5269  -78.1144 C.2       7 UNK         0.5089 
     39 O         -74.3596   27.3766  -78.6362 O.2       7 UNK        -0.5125 
     40 CA        -76.3934   26.9728  -77.4469 C.3       6 UNK         0.0408 
     41 CB        -77.5806   26.7928  -78.4053 C.3       6 UNK        -0.1791 
     42 N         -76.6627   26.2676  -76.1924 N.am      6 UNK        -0.4762 
     43 C         -75.9099   26.3502  -75.0863 C.2       6 UNK         0.5007 
     44 O         -74.9249   27.0822  -74.9921 O.2       6 UNK        -0.5032 
     45 CA        -76.2663   25.4021  -73.9228 C.3       5 UNK         0.0783 
     46 C46       -77.3893   25.9648  -73.0202 C.3       11 UNK        -0.0857 
     47 S47       -77.5163   24.9996  -71.4641 S.3       11 UNK        -0.2512 
     48 C48       -78.5748   26.0083  -70.3594 C.3       11 UNK         0.0225 
     49 N         -76.5871   24.0606  -74.4119 N.am      5 UNK        -0.4615 
     50 C         -75.7040   23.2175  -74.9576 C.2       4 UNK         0.5053 
     51 O         -74.5092   23.4757  -75.1010 O.2       4 UNK        -0.5105 
     52 CA        -76.2614   21.8738  -75.4549 C.3       4 UNK         0.0263 
     53 CB        -76.3487   20.8648  -74.2990 C.3       4 UNK        -0.1981 
     54 N         -77.5757   22.0096  -76.0916 N.am      4 UNK        -0.4224 
     55 C         -77.7834   22.6495  -77.2511 C.2       3 UNK         0.4895 
     56 O         -76.8886   23.1754  -77.9127 O.2       3 UNK        -0.5091 
     57 CA        -79.2400   22.7563  -77.7345 C.3       3 UNK         0.0250 
     58 CB        -79.7005   21.4347  -78.3707 C.3       3 UNK        -0.1996 
     59 N         -80.1945   23.1671  -76.6955 N.am      3 UNK        -0.4254 
     60 C         -80.1136   24.3085  -75.9988 C.2       2 UNK         0.5004 
     61 O         -79.1669   25.0941  -76.0764 O.2       2 UNK        -0.5226 
     62 CA        -81.2629   24.6361  -75.0416 C.3       2 UNK         0.0269 
     63 CB        -81.0833   23.9072  -73.6967 C.3       2 UNK        -0.1926 
     64 N         -81.2504   26.0822  -74.8334 N.am      2 UNK        -0.4687 
     65 C         -82.2749   26.8394  -74.4289 C.2       1 UNK         0.5165 
     66 O         -83.3884   26.3741  -74.1718 O.2       1 UNK        -0.5079 
     67 H67       -82.8822   31.0869  -74.7400 H         1 UNK         0.0900 
     68 H68       -84.4384   31.6357  -74.1373 H         1 UNK         0.0900 
     69 H69       -84.3633   30.2166  -75.1781 H         1 UNK         0.0900 
     70 H70       -82.8317   28.2204  -72.3523 H         1 UNK         0.2959 
     71 H71       -82.3824   28.7914  -75.2148 H         1 UNK         0.1079 
     72 H72       -80.0248   28.0793  -73.4082 H         1 UNK         0.0837 
     73 H73       -80.0056   28.5109  -75.0771 H         1 UNK         0.0837 
     74 H74       -79.9719   31.5726  -71.6187 H         1 UNK         0.0685 
     75 H75       -81.0962   30.2475  -71.5375 H         1 UNK         0.0685 
     76 H76       -80.3137   27.9535  -71.1271 H         1 UNK         0.1434 
     77 H77       -76.2480   27.3599  -69.9179 H         1 UNK         0.1329 
     78 H78       -77.4985   31.1702  -71.4423 H         1 UNK         0.1335 
     79 H79       -74.9200   29.6487  -69.5061 H         1 UNK         0.0680 
     80 H80       -75.2226   30.8884  -70.7118 H         1 UNK         0.0680 
     81 H81       -71.9267   28.7637  -71.2083 H         1 UNK         0.1032 
     82 H82       -72.6072   30.1998  -70.4934 H         1 UNK         0.1032 
     83 H83       -72.6458   31.3653  -72.6357 H         1 UNK         0.0461 
     84 H84       -68.6466   30.6696  -72.8430 H         1 UNK         0.3453 
     85 H85       -69.7826   29.7002  -73.7531 H         1 UNK         0.3453 
     86 H86       -72.5729   28.8074  -73.8236 H         1 UNK         0.2984 
     87 H87       -73.4594   29.5807  -76.5689 H         1 UNK         0.0554 
     88 H88       -71.7962   29.0844  -78.3744 H         1 UNK         0.0847 
     89 H89       -70.4899   29.6288  -77.3215 H         1 UNK         0.0847 
     90 H90       -71.7224   30.7603  -77.8582 H         1 UNK         0.0847 
     91 H91       -73.2389   27.4696  -76.0291 H         1 UNK         0.3141 
     92 H92       -70.5301   25.2392  -75.6293 H         1 UNK         0.0743 
     93 H93       -72.8530   25.8707  -73.7253 H         1 UNK         0.0784 
     94 H94       -71.9974   24.3341  -73.8311 H         1 UNK         0.0784 
     95 H95       -71.1563   25.7740  -73.2783 H         1 UNK         0.0784 
     96 H96       -73.3412   24.8236  -75.9635 H         1 UNK         0.3213 
     97 H97       -73.3541   24.9944  -79.5520 H         1 UNK         0.0855 
     98 H98       -73.7941   22.6902  -77.5788 H         1 UNK         0.0814 
     99 H99       -72.6946   22.6688  -78.9491 H         1 UNK         0.0814 
    100 H100      -74.4259   22.7834  -79.2209 H         1 UNK         0.0814 
    101 H101      -75.4686   24.5756  -77.6878 H         1 UNK         0.3105 
    102 H102      -76.3033   28.0361  -77.2150 H         1 UNK         0.0547 
    103 H103      -77.4125   27.3277  -79.3409 H         1 UNK         0.0837 
    104 H104      -77.7440   25.7434  -78.6525 H         1 UNK         0.0837 
    105 H105      -78.5024   27.1797  -77.9708 H         1 UNK         0.0837 
    106 H106      -77.4915   25.6733  -76.1760 H         1 UNK         0.3020 
    107 H107      -75.3621   25.3221  -73.3142 H         1 UNK         0.1245 
    108 H108      -77.1717   27.0078  -72.7902 H         1 UNK         0.0781 
    109 H109      -78.3527   25.9571  -73.5318 H         1 UNK         0.0781 
    110 H110      -79.6184   25.7778  -70.5798 H         1 UNK         0.0836 
    111 H111      -78.4050   25.7043  -69.3258 H         1 UNK         0.0836 
    112 H112      -77.5552   23.7840  -74.3578 H         1 UNK         0.3022 
    113 H113      -75.5645   21.4810  -76.1983 H         1 UNK         0.0747 
    114 H114      -76.6686   19.8841  -74.6517 H         1 UNK         0.0793 
    115 H115      -75.3759   20.7344  -73.8226 H         1 UNK         0.0793 
    116 H116      -77.0480   21.1899  -73.5274 H         1 UNK         0.0793 
    117 H117      -78.3678   21.6078  -75.6116 H         1 UNK         0.3047 
    118 H118      -79.2613   23.5257  -78.5094 H         1 UNK         0.0822 
    119 H119      -80.6828   21.5376  -78.8321 H         1 UNK         0.0807 
    120 H120      -79.7561   20.6281  -77.6388 H         1 UNK         0.0807 
    121 H121      -79.0101   21.1173  -79.1538 H         1 UNK         0.0807 
    122 H122      -80.9970   22.5689  -76.5591 H         1 UNK         0.2946 
    123 H123      -82.2066   24.3425  -75.5072 H         1 UNK         0.1144 
    124 H124      -81.0726   22.8252  -73.8332 H         1 UNK         0.0793 
    125 H125      -81.8982   24.1357  -73.0097 H         1 UNK         0.0793 
    126 H126      -80.1490   24.1850  -73.2075 H         1 UNK         0.0793 
    127 H127      -80.3711   26.5105  -75.0965 H         1 UNK         0.2896 
@<TRIPOS>BOND
     1    1    2 1    
     2    1   67 1    
     3    1   68 1    
     4    1   69 1    
     5    2    3 2    
     6    2    4 am   BACKBONE|DICT|INTERRES
     7    4    5 1    
     8    4   70 1    
     9    5    6 1    
    10    5   65 1    
    11    5   71 1    
    12    6    7 1    
    13    6   72 1    
    14    6   73 1    
    15    7    8 1    
    16    8    9 1    
    17    8   74 1    
    18    8   75 1    
    19    9   10 ar   
    20    9   14 ar   
    21   10   11 ar   
    22   10   76 1    
    23   11   12 ar   
    24   11   48 1    
    25   12   13 ar   
    26   12   77 1    
    27   13   14 ar   
    28   13   15 1    
    29   14   78 1    
    30   15   16 1    
    31   15   79 1    
    32   15   80 1    
    33   16   17 1    
    34   17   18 1    
    35   17   81 1    
    36   17   82 1    
    37   18   19 1    
    38   18   22 1    
    39   18   83 1    
    40   19   20 am   BACKBONE|DICT|INTERRES
    41   19   21 2    
    42   20   84 1    
    43   20   85 1    
    44   22   23 am   BACKBONE|DICT|INTERRES
    45   22   86 1    
    46   23   24 2    
    47   23   25 1    
    48   25   26 1    
    49   25   27 1    
    50   25   87 1    
    51   26   88 1    
    52   26   89 1    
    53   26   90 1    
    54   27   28 am   BACKBONE|DICT|INTERRES
    55   27   91 1    
    56   28   29 2    
    57   28   30 1    
    58   30   31 1    
    59   30   32 1    
    60   30   92 1    
    61   31   93 1    
    62   31   94 1    
    63   31   95 1    
    64   32   33 am   BACKBONE|DICT|INTERRES
    65   32   96 1    
    66   33   34 2    
    67   33   35 1    
    68   35   36 1    
    69   35   37 1    
    70   35   97 1    
    71   36   98 1    
    72   36   99 1    
    73   36  100 1    
    74   37   38 am   BACKBONE|DICT|INTERRES
    75   37  101 1    
    76   38   39 2    
    77   38   40 1    
    78   40   41 1    
    79   40   42 1    
    80   40  102 1    
    81   41  103 1    
    82   41  104 1    
    83   41  105 1    
    84   42   43 am   BACKBONE|DICT|INTERRES
    85   42  106 1    
    86   43   44 2    
    87   43   45 1    
    88   45   46 1    
    89   45   49 1    
    90   45  107 1    
    91   46   47 1    
    92   46  108 1    
    93   46  109 1    
    94   47   48 1    
    95   48  110 1    
    96   48  111 1    
    97   49   50 am   BACKBONE|DICT|INTERRES
    98   49  112 1    
    99   50   51 2    
   100   50   52 1    
   101   52   53 1    
   102   52   54 1    
   103   52  113 1    
   104   53  114 1    
   105   53  115 1    
   106   53  116 1    
   107   54   55 am   BACKBONE|DICT|INTERRES
   108   54  117 1    
   109   55   56 2    
   110   55   57 1    
   111   57   58 1    
   112   57   59 1    
   113   57  118 1    
   114   58  119 1    
   115   58  120 1    
   116   58  121 1    
   117   59   60 am   BACKBONE|DICT|INTERRES
   118   59  122 1    
   119   60   61 2    
   120   60   62 1    
   121   62   63 1    
   122   62   64 1    
   123   62  123 1    
   124   63  124 1    
   125   63  125 1    
   126   63  126 1    
   127   64   65 am   BACKBONE|DICT|INTERRES
   128   64  127 1    
   129   65   66 2    
@<TRIPOS>SUBSTRUCTURE
     1 UNK         1 GROUP             0       ****    0 ROOT    
