@<TRIPOS>MOLECULE
3R135
127   129    1
SMALL
USER_CHARGES


@<TRIPOS>ATOM
      1 CA        -84.4947   29.9784  -75.1274 C.3       0 UNK        -0.1998 
      2 C         -83.0819   30.2535  -74.6351 C.2       0 UNK         0.4909 
      3 O         -82.6977   31.4148  -74.4943 O.2       0 UNK        -0.5240 
      4 N         -82.3064   29.1936  -74.3709 N.am      1 UNK        -0.4739 
      5 CA        -80.9207   29.2670  -73.8854 C.3       1 UNK         0.0864 
      6 C6        -80.4292   27.9046  -73.3393 C.3       11 UNK        -0.0881 
      7 S7        -81.4527   27.2731  -71.9659 S.3       11 UNK        -0.2682 
      8 C8        -80.5259   27.8385  -70.5016 C.3       11 UNK         0.0289 
      9 C9        -79.1376   27.2185  -70.4130 C.ar      11 UNK        -0.0687 
     10 C10       -78.9892   25.8434  -70.2090 C.ar      11 UNK        -0.0823 
     11 C11       -77.7173   25.2609  -70.1448 C.ar      11 UNK        -0.0830 
     12 C12       -76.5897   26.0836  -70.2528 C.ar      11 UNK        -0.1021 
     13 C13       -76.7230   27.4627  -70.4597 C.ar      11 UNK        -0.0753 
     14 C14       -78.0009   28.0226  -70.5323 C.ar      11 UNK        -0.0933 
     15 C15       -75.4893   28.3491  -70.5927 C.3       11 UNK         0.0166 
     16 S16       -75.4100   29.2037  -72.2043 S.3       11 UNK        -0.2615 
     17 C17       -73.6763   29.7753  -72.1699 C.3       11 UNK        -0.0865 
     18 CA        -73.2848   30.7058  -73.3502 C.3       10 UNK         0.0862 
     19 C         -71.8312   31.2325  -73.1530 C.2       10 UNK         0.5551 
     20 N         -70.8701   30.8685  -73.9937 N.am      10 UNK        -0.7319 
     21 O         -71.5743   31.9859  -72.2171 O.2       10 UNK        -0.5018 
     22 N         -73.5511   30.0974  -74.6689 N.am      10 UNK        -0.4509 
     23 C         -73.5810   30.7698  -75.8276 C.2       10 UNK         0.4899 
     24 O         -73.3806   31.9826  -75.9139 O.2       10 UNK        -0.4839 
     25 CA        -73.8771   29.9515  -77.1015 C.3       9 UNK         0.0222 
     26 CB        -74.0270   30.8372  -78.3528 C.3       9 UNK        -0.1966 
     27 N         -72.8644   28.9237  -77.3692 N.am      9 UNK        -0.4218 
     28 C         -72.7931   27.7426  -76.7455 C.2       9 UNK         0.5020 
     29 O         -73.5464   27.4237  -75.8268 O.2       9 UNK        -0.5274 
     30 CA        -71.6797   26.7769  -77.1890 C.3       8 UNK         0.0270 
     31 CB        -70.3545   27.1508  -76.5045 C.3       8 UNK        -0.1976 
     32 N         -71.9887   25.3732  -76.8832 N.am      8 UNK        -0.4313 
     33 C         -73.0016   24.6693  -77.4078 C.2       8 UNK         0.5041 
     34 O         -73.7799   25.1247  -78.2483 O.2       8 UNK        -0.5577 
     35 CA        -73.1799   23.2117  -76.9443 C.3       7 UNK         0.0284 
     36 CB        -72.4956   22.8671  -75.6047 C.3       7 UNK        -0.1958 
     37 N         -74.6097   22.9111  -76.8791 N.am      7 UNK        -0.4454 
     38 C         -75.1684   21.7176  -77.1085 C.2       7 UNK         0.5089 
     39 O         -74.5255   20.6886  -77.3256 O.2       7 UNK        -0.5125 
     40 CA        -76.7102   21.6901  -77.1057 C.3       6 UNK         0.0408 
     41 CB        -77.2978   20.3073  -77.4622 C.3       6 UNK        -0.1791 
     42 N         -77.2745   22.2083  -75.8525 N.am      6 UNK        -0.4762 
     43 C         -77.1761   21.6740  -74.6226 C.2       6 UNK         0.5007 
     44 O         -76.6269   20.5995  -74.3732 O.2       6 UNK        -0.5032 
     45 CA        -77.7798   22.5295  -73.4849 C.3       5 UNK         0.0783 
     46 C46       -77.6924   21.8668  -72.0824 C.3       11 UNK        -0.0857 
     47 S47       -78.7323   22.7237  -70.8473 S.3       11 UNK        -0.2512 
     48 C48       -77.5462   23.7584  -69.9120 C.3       11 UNK         0.0225 
     49 N         -77.2053   23.8775  -73.5191 N.am      5 UNK        -0.4615 
     50 C         -75.9181   24.2005  -73.3497 C.2       4 UNK         0.5053 
     51 O         -75.0342   23.3866  -73.0788 O.2       4 UNK        -0.5105 
     52 CA        -75.5611   25.6846  -73.5346 C.3       4 UNK         0.0263 
     53 CB        -74.0982   25.9698  -73.1426 C.3       4 UNK        -0.1981 
     54 N         -75.8022   26.1762  -74.8932 N.am      4 UNK        -0.4224 
     55 C         -76.9993   26.3988  -75.4484 C.2       3 UNK         0.4895 
     56 O         -78.0746   26.1430  -74.8994 O.2       3 UNK        -0.5091 
     57 CA        -77.0152   26.9841  -76.8622 C.3       3 UNK         0.0250 
     58 CB        -77.2008   25.8782  -77.9146 C.3       3 UNK        -0.1996 
     59 N         -78.1410   27.9066  -76.9312 N.am      3 UNK        -0.4254 
     60 C         -78.1659   29.0845  -77.5626 C.2       2 UNK         0.5004 
     61 O         -77.2452   29.5084  -78.2605 O.2       2 UNK        -0.5226 
     62 CA        -79.4369   29.9400  -77.3951 C.3       2 UNK         0.0269 
     63 CB        -80.2996   29.8767  -78.6663 C.3       2 UNK        -0.1926 
     64 N         -80.2607   29.5567  -76.2419 N.am      2 UNK        -0.4687 
     65 C         -79.9402   29.7869  -74.9591 C.2       1 UNK         0.5165 
     66 O         -78.9162   30.3747  -74.6106 O.2       1 UNK        -0.5079 
     67 H67       -84.7014   28.9107  -75.1986 H         1 UNK         0.0900 
     68 H68       -84.6407   30.4187  -76.1134 H         1 UNK         0.0900 
     69 H69       -85.2217   30.4193  -74.4459 H         1 UNK         0.0900 
     70 H70       -82.6842   28.2619  -74.4717 H         1 UNK         0.2959 
     71 H71       -80.8939   29.9882  -73.0653 H         1 UNK         0.1079 
     72 H72       -80.4469   27.1529  -74.1304 H         1 UNK         0.0837 
     73 H73       -79.3874   27.9673  -73.0200 H         1 UNK         0.0837 
     74 H74       -80.4673   28.9279  -70.5183 H         1 UNK         0.0685 
     75 H75       -81.0899   27.5760  -69.6056 H         1 UNK         0.0685 
     76 H76       -79.8720   25.2267  -70.1110 H         1 UNK         0.1434 
     77 H77       -75.6026   25.6468  -70.1870 H         1 UNK         0.1329 
     78 H78       -78.1062   29.0870  -70.6922 H         1 UNK         0.1335 
     79 H79       -75.4918   29.0912  -69.7933 H         1 UNK         0.0680 
     80 H80       -74.5833   27.7553  -70.4616 H         1 UNK         0.0680 
     81 H81       -73.0185   28.9051  -72.1431 H         1 UNK         0.1032 
     82 H82       -73.5228   30.2940  -71.2211 H         1 UNK         0.1032 
     83 H83       -73.9266   31.5866  -73.2841 H         1 UNK         0.0461 
     84 H84       -69.9346   31.2176  -73.8575 H         1 UNK         0.3453 
     85 H85       -71.0772   30.2595  -74.7677 H         1 UNK         0.3453 
     86 H86       -73.6999   29.0943  -74.6943 H         1 UNK         0.2984 
     87 H87       -74.8377   29.4617  -76.9374 H         1 UNK         0.0554 
     88 H88       -74.8023   31.5904  -78.2055 H         1 UNK         0.0847 
     89 H89       -74.3202   30.2472  -79.2215 H         1 UNK         0.0847 
     90 H90       -73.1018   31.3613  -78.5952 H         1 UNK         0.0847 
     91 H91       -72.1849   29.1375  -78.0854 H         1 UNK         0.3141 
     92 H92       -71.5593   26.8649  -78.2708 H         1 UNK         0.0743 
     93 H93       -70.0626   28.1750  -76.7408 H         1 UNK         0.0784 
     94 H94       -70.4271   27.0759  -75.4183 H         1 UNK         0.0784 
     95 H95       -69.5409   26.5032  -76.8323 H         1 UNK         0.0784 
     96 H96       -71.4175   24.9324  -76.1779 H         1 UNK         0.3213 
     97 H97       -72.7295   22.5945  -77.7248 H         1 UNK         0.0855 
     98 H98       -71.4147   23.0002  -75.6565 H         1 UNK         0.0814 
     99 H99       -72.6687   21.8252  -75.3346 H         1 UNK         0.0814 
    100 H100      -72.8738   23.4785  -74.7873 H         1 UNK         0.0814 
    101 H101      -75.2077   23.7161  -76.7652 H         1 UNK         0.3105 
    102 H102      -77.0268   22.3816  -77.8883 H         1 UNK         0.0547 
    103 H103      -76.9663   19.9896  -78.4515 H         1 UNK         0.0837 
    104 H104      -76.9885   19.5349  -76.7578 H         1 UNK         0.0837 
    105 H105      -78.3872   20.3303  -77.4784 H         1 UNK         0.0837 
    106 H106      -77.7438   23.1000  -75.9286 H         1 UNK         0.3020 
    107 H107      -78.8384   22.6355  -73.7290 H         1 UNK         0.1245 
    108 H108      -76.6614   21.7952  -71.7343 H         1 UNK         0.0781 
    109 H109      -78.0568   20.8392  -72.1325 H         1 UNK         0.0781 
    110 H110      -76.5259   23.4507  -70.1445 H         1 UNK         0.0836 
    111 H111      -77.6857   23.5621  -68.8483 H         1 UNK         0.0836 
    112 H112      -77.8335   24.6304  -73.7894 H         1 UNK         0.3022 
    113 H113      -76.2084   26.2597  -72.8751 H         1 UNK         0.0747 
    114 H114      -73.3957   25.4399  -73.7838 H         1 UNK         0.0793 
    115 H115      -73.8641   27.0275  -73.2230 H         1 UNK         0.0793 
    116 H116      -73.8983   25.6702  -72.1135 H         1 UNK         0.0793 
    117 H117      -74.9680   26.4902  -75.3903 H         1 UNK         0.3047 
    118 H118      -76.0770   27.5103  -77.0451 H         1 UNK         0.0822 
    119 H119      -77.2084   26.2933  -78.9226 H         1 UNK         0.0807 
    120 H120      -78.1350   25.3341  -77.7701 H         1 UNK         0.0807 
    121 H121      -76.3892   25.1537  -77.8722 H         1 UNK         0.0807 
    122 H122      -78.9214   27.6550  -76.3391 H         1 UNK         0.2946 
    123 H123      -79.1096   30.9727  -77.2526 H         1 UNK         0.1144 
    124 H124      -81.1630   30.5383  -78.5938 H         1 UNK         0.0793 
    125 H125      -80.6633   28.8665  -78.8579 H         1 UNK         0.0793 
    126 H126      -79.7279   30.1885  -79.5417 H         1 UNK         0.0793 
    127 H127      -81.1303   29.0816  -76.4373 H         1 UNK         0.2896 
@<TRIPOS>BOND
     1    1    2 1    
     2    1   67 1    
     3    1   68 1    
     4    1   69 1    
     5    2    3 2    
     6    2    4 am   BACKBONE|DICT|INTERRES
     7    4    5 1    
     8    4   70 1    
     9    5    6 1    
    10    5   65 1    
    11    5   71 1    
    12    6    7 1    
    13    6   72 1    
    14    6   73 1    
    15    7    8 1    
    16    8    9 1    
    17    8   74 1    
    18    8   75 1    
    19    9   10 ar   
    20    9   14 ar   
    21   10   11 ar   
    22   10   76 1    
    23   11   12 ar   
    24   11   48 1    
    25   12   13 ar   
    26   12   77 1    
    27   13   14 ar   
    28   13   15 1    
    29   14   78 1    
    30   15   16 1    
    31   15   79 1    
    32   15   80 1    
    33   16   17 1    
    34   17   18 1    
    35   17   81 1    
    36   17   82 1    
    37   18   19 1    
    38   18   22 1    
    39   18   83 1    
    40   19   20 am   BACKBONE|DICT|INTERRES
    41   19   21 2    
    42   20   84 1    
    43   20   85 1    
    44   22   23 am   BACKBONE|DICT|INTERRES
    45   22   86 1    
    46   23   24 2    
    47   23   25 1    
    48   25   26 1    
    49   25   27 1    
    50   25   87 1    
    51   26   88 1    
    52   26   89 1    
    53   26   90 1    
    54   27   28 am   BACKBONE|DICT|INTERRES
    55   27   91 1    
    56   28   29 2    
    57   28   30 1    
    58   30   31 1    
    59   30   32 1    
    60   30   92 1    
    61   31   93 1    
    62   31   94 1    
    63   31   95 1    
    64   32   33 am   BACKBONE|DICT|INTERRES
    65   32   96 1    
    66   33   34 2    
    67   33   35 1    
    68   35   36 1    
    69   35   37 1    
    70   35   97 1    
    71   36   98 1    
    72   36   99 1    
    73   36  100 1    
    74   37   38 am   BACKBONE|DICT|INTERRES
    75   37  101 1    
    76   38   39 2    
    77   38   40 1    
    78   40   41 1    
    79   40   42 1    
    80   40  102 1    
    81   41  103 1    
    82   41  104 1    
    83   41  105 1    
    84   42   43 am   BACKBONE|DICT|INTERRES
    85   42  106 1    
    86   43   44 2    
    87   43   45 1    
    88   45   46 1    
    89   45   49 1    
    90   45  107 1    
    91   46   47 1    
    92   46  108 1    
    93   46  109 1    
    94   47   48 1    
    95   48  110 1    
    96   48  111 1    
    97   49   50 am   BACKBONE|DICT|INTERRES
    98   49  112 1    
    99   50   51 2    
   100   50   52 1    
   101   52   53 1    
   102   52   54 1    
   103   52  113 1    
   104   53  114 1    
   105   53  115 1    
   106   53  116 1    
   107   54   55 am   BACKBONE|DICT|INTERRES
   108   54  117 1    
   109   55   56 2    
   110   55   57 1    
   111   57   58 1    
   112   57   59 1    
   113   57  118 1    
   114   58  119 1    
   115   58  120 1    
   116   58  121 1    
   117   59   60 am   BACKBONE|DICT|INTERRES
   118   59  122 1    
   119   60   61 2    
   120   60   62 1    
   121   62   63 1    
   122   62   64 1    
   123   62  123 1    
   124   63  124 1    
   125   63  125 1    
   126   63  126 1    
   127   64   65 am   BACKBONE|DICT|INTERRES
   128   64  127 1    
   129   65   66 2    
@<TRIPOS>SUBSTRUCTURE
     1 UNK         1 GROUP             0       ****    0 ROOT    
