@<TRIPOS>MOLECULE
3R135
127   129    1
SMALL
USER_CHARGES


@<TRIPOS>ATOM
      1 CA        -84.9744   25.3753  -70.6530 C.3       0 UNK        -0.1998 
      2 C         -84.3019   26.2637  -71.6889 C.2       0 UNK         0.4909 
      3 O         -84.9834   27.0200  -72.3825 O.2       0 UNK        -0.5240 
      4 N         -82.9694   26.1856  -71.7906 N.am      1 UNK        -0.4739 
      5 CA        -82.1568   26.9220  -72.7659 C.3       1 UNK         0.0864 
      6 C6        -80.6505   26.8790  -72.4081 C.3       11 UNK        -0.0881 
      7 S7        -80.3040   27.5473  -70.7445 S.3       11 UNK        -0.2682 
      8 C8        -79.5554   29.1628  -71.1234 C.3       11 UNK         0.0289 
      9 C9        -78.1872   29.0144  -71.7727 C.ar      11 UNK        -0.0687 
     10 C10       -78.0160   29.2996  -73.1297 C.ar      11 UNK        -0.0823 
     11 C11       -76.7635   29.1566  -73.7315 C.ar      11 UNK        -0.0830 
     12 C12       -75.6770   28.7217  -72.9652 C.ar      11 UNK        -0.1021 
     13 C13       -75.8318   28.4447  -71.6035 C.ar      11 UNK        -0.0753 
     14 C14       -77.0903   28.5969  -71.0134 C.ar      11 UNK        -0.0933 
     15 C15       -74.6535   27.9641  -70.7672 C.3       11 UNK         0.0166 
     16 S16       -73.4675   29.3039  -70.4125 S.3       11 UNK        -0.2615 
     17 C17       -72.2792   29.1414  -71.7893 C.3       11 UNK        -0.0865 
     18 CA        -72.3998   30.2753  -72.8488 C.3       10 UNK         0.0862 
     19 C         -71.3772   31.4223  -72.5853 C.2       10 UNK         0.5551 
     20 N         -70.3700   31.6225  -73.4293 N.am      10 UNK        -0.7319 
     21 O         -71.5018   32.1437  -71.5993 O.2       10 UNK        -0.5018 
     22 N         -72.3505   29.7176  -74.2077 N.am      10 UNK        -0.4509 
     23 C         -72.7134   30.3534  -75.3289 C.2       10 UNK         0.4899 
     24 O         -73.2420   31.4656  -75.3453 O.2       10 UNK        -0.4839 
     25 CA        -72.4373   29.6128  -76.6533 C.3       9 UNK         0.0222 
     26 CB        -72.1407   30.5766  -77.8215 C.3       9 UNK        -0.1966 
     27 N         -71.3990   28.5767  -76.5407 N.am      9 UNK        -0.4218 
     28 C         -70.0992   28.7512  -76.2436 C.2       9 UNK         0.5020 
     29 O         -69.6002   29.8558  -76.0212 O.2       9 UNK        -0.5274 
     30 CA        -69.2081   27.4976  -76.1025 C.3       8 UNK         0.0270 
     31 CB        -68.6086   27.4199  -74.6866 C.3       8 UNK        -0.1976 
     32 N         -69.9019   26.2374  -76.3821 N.am      8 UNK        -0.4313 
     33 C         -70.2232   25.7769  -77.5984 C.2       8 UNK         0.5041 
     34 O         -69.8840   26.3253  -78.6473 O.2       8 UNK        -0.5577 
     35 CA        -71.1003   24.5091  -77.6571 C.3       7 UNK         0.0284 
     36 CB        -70.2337   23.2731  -77.9490 C.3       7 UNK        -0.1958 
     37 N         -71.9101   24.2583  -76.4539 N.am      7 UNK        -0.4454 
     38 C         -72.8382   25.0875  -75.9557 C.2       7 UNK         0.5089 
     39 O         -73.0715   26.2053  -76.4187 O.2       7 UNK        -0.5125 
     40 CA        -73.5578   24.6190  -74.6789 C.3       6 UNK         0.0408 
     41 CB        -72.7113   24.9580  -73.4410 C.3       6 UNK        -0.1791 
     42 N         -74.8750   25.2405  -74.5293 N.am      6 UNK        -0.4762 
     43 C         -75.9526   24.9408  -75.2668 C.2       6 UNK         0.5007 
     44 O         -75.9664   24.0629  -76.1344 O.2       6 UNK        -0.5032 
     45 CA        -77.2336   25.7637  -74.9843 C.3       5 UNK         0.0783 
     46 C46       -77.4424   26.9031  -76.0174 C.3       11 UNK        -0.0857 
     47 S47       -76.0404   28.0637  -76.1834 S.3       11 UNK        -0.2512 
     48 C48       -76.5862   29.4947  -75.2045 C.3       11 UNK         0.0225 
     49 N         -78.4089   24.8838  -74.9383 N.am      5 UNK        -0.4615 
     50 C         -78.5895   23.8912  -74.0518 C.2       4 UNK         0.5053 
     51 O         -77.8482   23.7152  -73.0844 O.2       4 UNK        -0.5105 
     52 CA        -79.7753   22.9240  -74.2564 C.3       4 UNK         0.0263 
     53 CB        -80.6420   22.8013  -72.9898 C.3       4 UNK        -0.1981 
     54 N         -80.6282   23.2723  -75.3960 N.am      4 UNK        -0.4224 
     55 C         -80.3904   22.9058  -76.6649 C.2       3 UNK         0.4895 
     56 O         -79.4528   22.1812  -76.9989 O.2       3 UNK        -0.5091 
     57 CA        -81.3391   23.4394  -77.7574 C.3       3 UNK         0.0250 
     58 CB        -82.3512   22.3560  -78.1644 C.3       3 UNK        -0.1996 
     59 N         -82.0662   24.6579  -77.3880 N.am      3 UNK        -0.4254 
     60 C         -81.5018   25.8387  -77.0994 C.2       2 UNK         0.5004 
     61 O         -80.2882   26.0381  -77.1354 O.2       2 UNK        -0.5226 
     62 CA        -82.4316   26.9755  -76.6327 C.3       2 UNK         0.0269 
     63 CB        -83.9239   26.7449  -76.9662 C.3       2 UNK        -0.1926 
     64 N         -82.2673   27.2569  -75.1989 N.am      2 UNK        -0.4687 
     65 C         -82.3859   26.3776  -74.1914 C.2       1 UNK         0.5165 
     66 O         -82.6293   25.1780  -74.3538 O.2       1 UNK        -0.5079 
     67 H67       -85.5218   25.9845  -69.9343 H         1 UNK         0.0900 
     68 H68       -85.6807   24.7025  -71.1386 H         1 UNK         0.0900 
     69 H69       -84.2524   24.7704  -70.1046 H         1 UNK         0.0900 
     70 H70       -82.4609   25.5497  -71.1939 H         1 UNK         0.2959 
     71 H71       -82.4851   27.9639  -72.7479 H         1 UNK         0.1079 
     72 H72       -80.0659   27.4213  -73.1517 H         1 UNK         0.0837 
     73 H73       -80.2750   25.8561  -72.4322 H         1 UNK         0.0837 
     74 H74       -80.2329   29.7354  -71.7588 H         1 UNK         0.0685 
     75 H75       -79.4530   29.7295  -70.1969 H         1 UNK         0.0685 
     76 H76       -78.8597   29.6351  -73.7172 H         1 UNK         0.1434 
     77 H77       -74.7104   28.6041  -73.4319 H         1 UNK         0.1329 
     78 H78       -77.2241   28.3798  -69.9623 H         1 UNK         0.1335 
     79 H79       -75.0099   27.5718  -69.8134 H         1 UNK         0.0680 
     80 H80       -74.1615   27.1258  -71.2615 H         1 UNK         0.0680 
     81 H81       -71.2725   29.0923  -71.3686 H         1 UNK         0.1032 
     82 H82       -72.4240   28.1647  -72.2494 H         1 UNK         0.1032 
     83 H83       -73.3869   30.7324  -72.7539 H         1 UNK         0.0461 
     84 H84       -70.2547   31.0418  -74.2499 H         1 UNK         0.3453 
     85 H85       -69.7181   32.3691  -73.2485 H         1 UNK         0.3453 
     86 H86       -71.9067   28.8185  -74.3085 H         1 UNK         0.2984 
     87 H87       -73.3566   29.0810  -76.8975 H         1 UNK         0.0554 
     88 H88       -72.9867   31.2400  -78.0052 H         1 UNK         0.0847 
     89 H89       -71.9519   30.0321  -78.7467 H         1 UNK         0.0847 
     90 H90       -71.2741   31.2065  -77.6190 H         1 UNK         0.0847 
     91 H91       -71.7465   27.6274  -76.6537 H         1 UNK         0.3141 
     92 H92       -68.3882   27.6063  -76.8157 H         1 UNK         0.0743 
     93 H93       -69.3817   27.3243  -73.9231 H         1 UNK         0.0784 
     94 H94       -67.9316   26.5710  -74.5883 H         1 UNK         0.0784 
     95 H95       -68.0314   28.3161  -74.4540 H         1 UNK         0.0784 
     96 H96       -70.2108   25.7034  -75.5833 H         1 UNK         0.3213 
     97 H97       -71.7939   24.6436  -78.4900 H         1 UNK         0.0855 
     98 H98       -69.5385   23.0651  -77.1347 H         1 UNK         0.0814 
     99 H99       -69.6410   23.4164  -78.8538 H         1 UNK         0.0814 
    100 H100      -70.8462   22.3848  -78.1052 H         1 UNK         0.0814 
    101 H101      -71.7693   23.3672  -75.9985 H         1 UNK         0.3105 
    102 H102      -73.6918   23.5363  -74.7280 H         1 UNK         0.0547 
    103 H103      -71.7418   24.4596  -73.4774 H         1 UNK         0.0837 
    104 H104      -72.5236   26.0287  -73.3618 H         1 UNK         0.0837 
    105 H105      -73.2018   24.6341  -72.5227 H         1 UNK         0.0837 
    106 H106      -74.9366   26.0068  -73.8761 H         1 UNK         0.3020 
    107 H107      -77.1391   26.2161  -73.9946 H         1 UNK         0.1245 
    108 H108      -78.3416   27.4689  -75.7684 H         1 UNK         0.0781 
    109 H109      -77.6248   26.4770  -77.0056 H         1 UNK         0.0781 
    110 H110      -77.5086   29.8881  -75.6346 H         1 UNK         0.0836 
    111 H111      -75.8450   30.2893  -75.2971 H         1 UNK         0.0836 
    112 H112      -79.0560   24.9739  -75.7126 H         1 UNK         0.3022 
    113 H113      -79.3355   21.9410  -74.4380 H         1 UNK         0.0747 
    114 H114      -81.4214   22.0502  -73.1186 H         1 UNK         0.0793 
    115 H115      -80.0436   22.4975  -72.1300 H         1 UNK         0.0793 
    116 H116      -81.1283   23.7399  -72.7315 H         1 UNK         0.0793 
    117 H117      -81.4190   23.8802  -75.1971 H         1 UNK         0.3047 
    118 H118      -80.7231   23.6769  -78.6274 H         1 UNK         0.0822 
    119 H119      -82.9683   22.6822  -79.0018 H         1 UNK         0.0807 
    120 H120      -83.0141   22.0930  -77.3390 H         1 UNK         0.0807 
    121 H121      -81.8421   21.4430  -78.4769 H         1 UNK         0.0807 
    122 H122      -83.0678   24.5754  -77.2901 H         1 UNK         0.2946 
    123 H123      -82.1067   27.8672  -77.1719 H         1 UNK         0.1144 
    124 H124      -84.5158   27.6269  -76.7213 H         1 UNK         0.0793 
    125 H125      -84.3504   25.9058  -76.4154 H         1 UNK         0.0793 
    126 H126      -84.0663   26.5538  -78.0308 H         1 UNK         0.0793 
    127 H127      -82.0267   28.2127  -74.9750 H         1 UNK         0.2896 
@<TRIPOS>BOND
     1    1    2 1    
     2    1   67 1    
     3    1   68 1    
     4    1   69 1    
     5    2    3 2    
     6    2    4 am   BACKBONE|DICT|INTERRES
     7    4    5 1    
     8    4   70 1    
     9    5    6 1    
    10    5   65 1    
    11    5   71 1    
    12    6    7 1    
    13    6   72 1    
    14    6   73 1    
    15    7    8 1    
    16    8    9 1    
    17    8   74 1    
    18    8   75 1    
    19    9   10 ar   
    20    9   14 ar   
    21   10   11 ar   
    22   10   76 1    
    23   11   12 ar   
    24   11   48 1    
    25   12   13 ar   
    26   12   77 1    
    27   13   14 ar   
    28   13   15 1    
    29   14   78 1    
    30   15   16 1    
    31   15   79 1    
    32   15   80 1    
    33   16   17 1    
    34   17   18 1    
    35   17   81 1    
    36   17   82 1    
    37   18   19 1    
    38   18   22 1    
    39   18   83 1    
    40   19   20 am   BACKBONE|DICT|INTERRES
    41   19   21 2    
    42   20   84 1    
    43   20   85 1    
    44   22   23 am   BACKBONE|DICT|INTERRES
    45   22   86 1    
    46   23   24 2    
    47   23   25 1    
    48   25   26 1    
    49   25   27 1    
    50   25   87 1    
    51   26   88 1    
    52   26   89 1    
    53   26   90 1    
    54   27   28 am   BACKBONE|DICT|INTERRES
    55   27   91 1    
    56   28   29 2    
    57   28   30 1    
    58   30   31 1    
    59   30   32 1    
    60   30   92 1    
    61   31   93 1    
    62   31   94 1    
    63   31   95 1    
    64   32   33 am   BACKBONE|DICT|INTERRES
    65   32   96 1    
    66   33   34 2    
    67   33   35 1    
    68   35   36 1    
    69   35   37 1    
    70   35   97 1    
    71   36   98 1    
    72   36   99 1    
    73   36  100 1    
    74   37   38 am   BACKBONE|DICT|INTERRES
    75   37  101 1    
    76   38   39 2    
    77   38   40 1    
    78   40   41 1    
    79   40   42 1    
    80   40  102 1    
    81   41  103 1    
    82   41  104 1    
    83   41  105 1    
    84   42   43 am   BACKBONE|DICT|INTERRES
    85   42  106 1    
    86   43   44 2    
    87   43   45 1    
    88   45   46 1    
    89   45   49 1    
    90   45  107 1    
    91   46   47 1    
    92   46  108 1    
    93   46  109 1    
    94   47   48 1    
    95   48  110 1    
    96   48  111 1    
    97   49   50 am   BACKBONE|DICT|INTERRES
    98   49  112 1    
    99   50   51 2    
   100   50   52 1    
   101   52   53 1    
   102   52   54 1    
   103   52  113 1    
   104   53  114 1    
   105   53  115 1    
   106   53  116 1    
   107   54   55 am   BACKBONE|DICT|INTERRES
   108   54  117 1    
   109   55   56 2    
   110   55   57 1    
   111   57   58 1    
   112   57   59 1    
   113   57  118 1    
   114   58  119 1    
   115   58  120 1    
   116   58  121 1    
   117   59   60 am   BACKBONE|DICT|INTERRES
   118   59  122 1    
   119   60   61 2    
   120   60   62 1    
   121   62   63 1    
   122   62   64 1    
   123   62  123 1    
   124   63  124 1    
   125   63  125 1    
   126   63  126 1    
   127   64   65 am   BACKBONE|DICT|INTERRES
   128   64  127 1    
   129   65   66 2    
@<TRIPOS>SUBSTRUCTURE
     1 UNK         1 GROUP             0       ****    0 ROOT    
