@<TRIPOS>MOLECULE
3R135
127   129    1
SMALL
USER_CHARGES


@<TRIPOS>ATOM
      1 CA        -85.1546   27.7584  -73.9491 C.3       0 UNK        -0.1998 
      2 C         -83.6415   27.8843  -73.8583 C.2       0 UNK         0.4909 
      3 O         -83.0751   28.8485  -74.3724 O.2       0 UNK        -0.5240 
      4 N         -82.9800   26.9100  -73.2198 N.am      1 UNK        -0.4739 
      5 CA        -81.5254   26.8782  -73.0064 C.3       1 UNK         0.0864 
      6 C6        -81.1500   26.2085  -71.6586 C.3       11 UNK        -0.0881 
      7 S7        -81.5908   27.2981  -70.2626 S.3       11 UNK        -0.2682 
      8 C8        -79.9610   27.6720  -69.5197 C.3       11 UNK         0.0289 
      9 C9        -78.9232   28.2527  -70.4825 C.ar      11 UNK        -0.0687 
     10 C10       -79.2641   29.2149  -71.4415 C.ar      11 UNK        -0.0823 
     11 C11       -78.3016   29.7299  -72.3180 C.ar      11 UNK        -0.0830 
     12 C12       -76.9729   29.3120  -72.1887 C.ar      11 UNK        -0.1021 
     13 C13       -76.6133   28.3641  -71.2287 C.ar      11 UNK        -0.0753 
     14 C14       -77.5920   27.8344  -70.3838 C.ar      11 UNK        -0.0933 
     15 C15       -75.1664   27.9146  -71.1149 C.3       11 UNK         0.0166 
     16 S16       -74.1588   29.1689  -70.2691 S.3       11 UNK        -0.2615 
     17 C17       -72.4826   28.4808  -70.4824 C.3       11 UNK        -0.0865 
     18 CA        -71.6976   29.1962  -71.6119 C.3       10 UNK         0.0862 
     19 C         -70.2132   28.7479  -71.6208 C.2       10 UNK         0.5551 
     20 N         -69.3028   29.5912  -71.1548 N.am      10 UNK        -0.7319 
     21 O         -69.8916   27.6246  -72.0027 O.2       10 UNK        -0.5018 
     22 N         -72.3175   28.9675  -72.9224 N.am      10 UNK        -0.4509 
     23 C         -72.1488   29.7453  -73.9978 C.2       10 UNK         0.4899 
     24 O         -71.5199   30.8050  -73.9879 O.2       10 UNK        -0.4839 
     25 CA        -72.8030   29.2383  -75.2986 C.3       9 UNK         0.0222 
     26 CB        -72.3756   30.0412  -76.5463 C.3       9 UNK        -0.1966 
     27 N         -72.6030   27.7956  -75.4987 N.am      9 UNK        -0.4218 
     28 C         -71.4278   27.1607  -75.6423 C.2       9 UNK         0.5020 
     29 O         -70.3360   27.7268  -75.7057 O.2       9 UNK        -0.5274 
     30 CA        -71.4699   25.6299  -75.7192 C.3       8 UNK         0.0270 
     31 CB        -71.5238   25.0294  -74.3033 C.3       8 UNK        -0.1976 
     32 N         -72.6210   25.1519  -76.4876 N.am      8 UNK        -0.4313 
     33 C         -72.5430   24.5133  -77.6612 C.2       8 UNK         0.5041 
     34 O         -71.4908   24.3086  -78.2686 O.2       8 UNK        -0.5577 
     35 CA        -73.8592   23.9787  -78.2439 C.3       7 UNK         0.0284 
     36 CB        -74.3374   22.7508  -77.4536 C.3       7 UNK        -0.1958 
     37 N         -74.9229   24.9831  -78.2807 N.am      7 UNK        -0.4454 
     38 C         -75.0187   25.9454  -79.2086 C.2       7 UNK         0.5089 
     39 O         -74.1821   26.1336  -80.0921 O.2       7 UNK        -0.5125 
     40 CA        -76.2766   26.8283  -79.1675 C.3       6 UNK         0.0408 
     41 CB        -77.3829   26.2225  -80.0463 C.3       6 UNK        -0.1791 
     42 N         -76.7760   27.0128  -77.8019 N.am      6 UNK        -0.4762 
     43 C         -76.3342   27.9825  -76.9868 C.2       6 UNK         0.5007 
     44 O         -75.5089   28.8293  -77.3263 O.2       6 UNK        -0.5032 
     45 CA        -76.8798   28.0063  -75.5458 C.3       5 UNK         0.0783 
     46 C46       -78.1848   28.8436  -75.4391 C.3       11 UNK        -0.0857 
     47 S47       -77.8480   30.5789  -74.9863 S.3       11 UNK        -0.2512 
     48 C48       -78.7169   30.7466  -73.3823 C.3       11 UNK         0.0225 
     49 N         -77.0230   26.6702  -74.9602 N.am      5 UNK        -0.4615 
     50 C         -76.0121   25.8293  -74.7024 C.2       4 UNK         0.5053 
     51 O         -74.8424   26.0593  -75.0128 O.2       4 UNK        -0.5105 
     52 CA        -76.3510   24.5121  -73.9896 C.3       4 UNK         0.0263 
     53 CB        -76.4498   24.7355  -72.4734 C.3       4 UNK        -0.1981 
     54 N         -77.6133   23.9601  -74.4799 N.am      4 UNK        -0.4224 
     55 C         -77.7406   22.8174  -75.1679 C.2       3 UNK         0.4895 
     56 O         -76.8162   22.0297  -75.3663 O.2       3 UNK        -0.5091 
     57 CA        -79.1301   22.4827  -75.7474 C.3       3 UNK         0.0250 
     58 CB        -79.8418   21.4468  -74.8620 C.3       3 UNK        -0.1996 
     59 N         -80.0143   23.6379  -75.9336 N.am      3 UNK        -0.4254 
     60 C         -79.7580   24.7001  -76.7100 C.2       2 UNK         0.5004 
     61 O         -78.7331   24.8387  -77.3777 O.2       2 UNK        -0.5226 
     62 CA        -80.7854   25.8431  -76.6736 C.3       2 UNK         0.0269 
     63 CB        -81.8946   25.5991  -77.7084 C.3       2 UNK        -0.1926 
     64 N         -81.3932   26.1154  -75.3613 N.am      2 UNK        -0.4687 
     65 C         -80.7438   26.2893  -74.1987 C.2       1 UNK         0.5165 
     66 O         -79.5483   26.0341  -74.0535 O.2       1 UNK        -0.5079 
     67 H67       -85.4676   27.7304  -74.9924 H         1 UNK         0.0900 
     68 H68       -85.6304   28.6156  -73.4735 H         1 UNK         0.0900 
     69 H69       -85.5191   26.8548  -73.4607 H         1 UNK         0.0900 
     70 H70       -83.4971   26.1391  -72.8203 H         1 UNK         0.2959 
     71 H71       -81.1733   27.9096  -72.9631 H         1 UNK         0.1079 
     72 H72       -81.6610   25.2514  -71.5439 H         1 UNK         0.0837 
     73 H73       -80.0834   25.9846  -71.5956 H         1 UNK         0.0837 
     74 H74       -79.5829   26.7544  -69.0660 H         1 UNK         0.0685 
     75 H75       -80.1071   28.3794  -68.7025 H         1 UNK         0.0685 
     76 H76       -80.2871   29.5583  -71.5095 H         1 UNK         0.1434 
     77 H77       -76.2103   29.7249  -72.8339 H         1 UNK         0.1329 
     78 H78       -77.3126   27.1011  -69.6397 H         1 UNK         0.1335 
     79 H79       -74.7691   27.7261  -72.1129 H         1 UNK         0.0680 
     80 H80       -75.0969   26.9739  -70.5668 H         1 UNK         0.0680 
     81 H81       -71.9631   28.6004  -69.5295 H         1 UNK         0.1032 
     82 H82       -72.5347   27.4048  -70.6600 H         1 UNK         0.1032 
     83 H83       -71.7294   30.2688  -71.4071 H         1 UNK         0.0461 
     84 H84       -68.3354   29.3081  -71.1380 H         1 UNK         0.3453 
     85 H85       -69.5611   30.5114  -70.8336 H         1 UNK         0.3453 
     86 H86       -72.8014   28.0911  -73.0360 H         1 UNK         0.2984 
     87 H87       -73.8755   29.3837  -75.1700 H         1 UNK         0.0554 
     88 H88       -72.6591   31.0898  -76.4494 H         1 UNK         0.0847 
     89 H89       -72.8566   29.6591  -77.4466 H         1 UNK         0.0847 
     90 H90       -71.2971   30.0102  -76.7028 H         1 UNK         0.0847 
     91 H91       -73.4414   27.2243  -75.4292 H         1 UNK         0.3141 
     92 H92       -70.5376   25.3026  -76.1844 H         1 UNK         0.0743 
     93 H93       -70.6825   25.3751  -73.7005 H         1 UNK         0.0784 
     94 H94       -72.4377   25.3062  -73.7763 H         1 UNK         0.0784 
     95 H95       -71.4738   23.9409  -74.3349 H         1 UNK         0.0784 
     96 H96       -73.5350   25.3100  -76.0705 H         1 UNK         0.3213 
     97 H97       -73.6602   23.6546  -79.2682 H         1 UNK         0.0855 
     98 H98       -74.5395   22.9936  -76.4101 H         1 UNK         0.0814 
     99 H99       -73.5818   21.9641  -77.4618 H         1 UNK         0.0814 
    100 H100      -75.2472   22.3292  -77.8814 H         1 UNK         0.0814 
    101 H101      -75.6611   24.9048  -77.5974 H         1 UNK         0.3105 
    102 H102      -76.0171   27.7998  -79.5940 H         1 UNK         0.0547 
    103 H103      -77.6411   25.2095  -79.7366 H         1 UNK         0.0837 
    104 H104      -78.2908   26.8247  -80.0161 H         1 UNK         0.0837 
    105 H105      -77.0635   26.1688  -81.0878 H         1 UNK         0.0837 
    106 H106      -77.4583   26.3366  -77.4684 H         1 UNK         0.3020 
    107 H107      -76.1108   28.4935  -74.9439 H         1 UNK         0.1245 
    108 H108      -78.8434   28.4321  -74.6772 H         1 UNK         0.0781 
    109 H109      -78.7681   28.8204  -76.3618 H         1 UNK         0.0781 
    110 H110      -78.5385   31.7494  -72.9925 H         1 UNK         0.0836 
    111 H111      -79.7894   30.6764  -73.5715 H         1 UNK         0.0836 
    112 H112      -77.9568   26.4245  -74.6378 H         1 UNK         0.3022 
    113 H113      -75.5294   23.8178  -74.1768 H         1 UNK         0.0747 
    114 H114      -75.5047   25.1040  -72.0745 H         1 UNK         0.0793 
    115 H115      -76.6789   23.8061  -71.9521 H         1 UNK         0.0793 
    116 H116      -77.2247   25.4603  -72.2191 H         1 UNK         0.0793 
    117 H117      -78.4349   24.5466  -74.3620 H         1 UNK         0.3047 
    118 H118      -78.9651   22.0390  -76.7314 H         1 UNK         0.0822 
    119 H119      -79.2242   20.5574  -74.7273 H         1 UNK         0.0807 
    120 H120      -80.7815   21.1202  -75.3080 H         1 UNK         0.0807 
    121 H121      -80.0591   21.8455  -73.8703 H         1 UNK         0.0807 
    122 H122      -80.8748   23.6399  -75.4054 H         1 UNK         0.2946 
    123 H123      -80.2506   26.7494  -76.9647 H         1 UNK         0.1144 
    124 H124      -81.4734   25.4126  -78.6977 H         1 UNK         0.0793 
    125 H125      -82.5519   26.4642  -77.7981 H         1 UNK         0.0793 
    126 H126      -82.5084   24.7362  -77.4470 H         1 UNK         0.0793 
    127 H127      -82.3759   26.3481  -75.3683 H         1 UNK         0.2896 
@<TRIPOS>BOND
     1    1    2 1    
     2    1   67 1    
     3    1   68 1    
     4    1   69 1    
     5    2    3 2    
     6    2    4 am   BACKBONE|DICT|INTERRES
     7    4    5 1    
     8    4   70 1    
     9    5    6 1    
    10    5   65 1    
    11    5   71 1    
    12    6    7 1    
    13    6   72 1    
    14    6   73 1    
    15    7    8 1    
    16    8    9 1    
    17    8   74 1    
    18    8   75 1    
    19    9   10 ar   
    20    9   14 ar   
    21   10   11 ar   
    22   10   76 1    
    23   11   12 ar   
    24   11   48 1    
    25   12   13 ar   
    26   12   77 1    
    27   13   14 ar   
    28   13   15 1    
    29   14   78 1    
    30   15   16 1    
    31   15   79 1    
    32   15   80 1    
    33   16   17 1    
    34   17   18 1    
    35   17   81 1    
    36   17   82 1    
    37   18   19 1    
    38   18   22 1    
    39   18   83 1    
    40   19   20 am   BACKBONE|DICT|INTERRES
    41   19   21 2    
    42   20   84 1    
    43   20   85 1    
    44   22   23 am   BACKBONE|DICT|INTERRES
    45   22   86 1    
    46   23   24 2    
    47   23   25 1    
    48   25   26 1    
    49   25   27 1    
    50   25   87 1    
    51   26   88 1    
    52   26   89 1    
    53   26   90 1    
    54   27   28 am   BACKBONE|DICT|INTERRES
    55   27   91 1    
    56   28   29 2    
    57   28   30 1    
    58   30   31 1    
    59   30   32 1    
    60   30   92 1    
    61   31   93 1    
    62   31   94 1    
    63   31   95 1    
    64   32   33 am   BACKBONE|DICT|INTERRES
    65   32   96 1    
    66   33   34 2    
    67   33   35 1    
    68   35   36 1    
    69   35   37 1    
    70   35   97 1    
    71   36   98 1    
    72   36   99 1    
    73   36  100 1    
    74   37   38 am   BACKBONE|DICT|INTERRES
    75   37  101 1    
    76   38   39 2    
    77   38   40 1    
    78   40   41 1    
    79   40   42 1    
    80   40  102 1    
    81   41  103 1    
    82   41  104 1    
    83   41  105 1    
    84   42   43 am   BACKBONE|DICT|INTERRES
    85   42  106 1    
    86   43   44 2    
    87   43   45 1    
    88   45   46 1    
    89   45   49 1    
    90   45  107 1    
    91   46   47 1    
    92   46  108 1    
    93   46  109 1    
    94   47   48 1    
    95   48  110 1    
    96   48  111 1    
    97   49   50 am   BACKBONE|DICT|INTERRES
    98   49  112 1    
    99   50   51 2    
   100   50   52 1    
   101   52   53 1    
   102   52   54 1    
   103   52  113 1    
   104   53  114 1    
   105   53  115 1    
   106   53  116 1    
   107   54   55 am   BACKBONE|DICT|INTERRES
   108   54  117 1    
   109   55   56 2    
   110   55   57 1    
   111   57   58 1    
   112   57   59 1    
   113   57  118 1    
   114   58  119 1    
   115   58  120 1    
   116   58  121 1    
   117   59   60 am   BACKBONE|DICT|INTERRES
   118   59  122 1    
   119   60   61 2    
   120   60   62 1    
   121   62   63 1    
   122   62   64 1    
   123   62  123 1    
   124   63  124 1    
   125   63  125 1    
   126   63  126 1    
   127   64   65 am   BACKBONE|DICT|INTERRES
   128   64  127 1    
   129   65   66 2    
@<TRIPOS>SUBSTRUCTURE
     1 UNK         1 GROUP             0       ****    0 ROOT    
