@<TRIPOS>MOLECULE
3R135
127   129    1
SMALL
USER_CHARGES


@<TRIPOS>ATOM
      1 CA        -81.4617   28.0521  -78.8784 C.3       0 UNK        -0.1998 
      2 C         -81.1572   27.4645  -77.5085 C.2       0 UNK         0.4909 
      3 O         -80.4724   26.4465  -77.4210 O.2       0 UNK        -0.5240 
      4 N         -81.6519   28.1073  -76.4434 N.am      1 UNK        -0.4739 
      5 CA        -81.4941   27.6937  -75.0434 C.3       1 UNK         0.0864 
      6 C6        -81.9882   28.7990  -74.0775 C.3       11 UNK        -0.0881 
      7 S7        -80.9827   30.3183  -74.1813 S.3       11 UNK        -0.2682 
      8 C8        -80.3965   30.5011  -72.4660 C.3       11 UNK         0.0289 
      9 C9        -79.1228   29.7096  -72.2020 C.ar      11 UNK        -0.0687 
     10 C10       -79.1810   28.3761  -71.7784 C.ar      11 UNK        -0.0823 
     11 C11       -78.0069   27.6685  -71.4938 C.ar      11 UNK        -0.0830 
     12 C12       -76.7745   28.3095  -71.6324 C.ar      11 UNK        -0.1021 
     13 C13       -76.7022   29.6384  -72.0541 C.ar      11 UNK        -0.0753 
     14 C14       -77.8787   30.3333  -72.3436 C.ar      11 UNK        -0.0933 
     15 C15       -75.3449   30.3061  -72.1915 C.3       11 UNK         0.0166 
     16 S16       -74.5396   30.4801  -70.5684 S.3       11 UNK        -0.2615 
     17 C17       -72.8597   31.0619  -71.0021 C.3       11 UNK        -0.0865 
     18 CA        -71.9252   30.0360  -71.7078 C.3       10 UNK         0.0862 
     19 C         -71.8778   28.6445  -71.0061 C.2       10 UNK         0.5551 
     20 N         -72.3623   27.5691  -71.6174 N.am      10 UNK        -0.7319 
     21 O         -71.3755   28.5424  -69.8895 O.2       10 UNK        -0.5018 
     22 N         -72.1681   30.0090  -73.1570 N.am      10 UNK        -0.4509 
     23 C         -71.3185   29.5378  -74.0748 C.2       10 UNK         0.4899 
     24 O         -70.2019   29.0876  -73.8146 O.2       10 UNK        -0.4839 
     25 CA        -71.8062   29.6320  -75.5277 C.3       9 UNK         0.0222 
     26 CB        -70.9778   30.6371  -76.3524 C.3       9 UNK        -0.1966 
     27 N         -71.8883   28.3160  -76.1625 N.am      9 UNK        -0.4218 
     28 C         -70.9093   27.5081  -76.5976 C.2       9 UNK         0.5020 
     29 O         -69.7083   27.7807  -76.5823 O.2       9 UNK        -0.5274 
     30 CA        -71.3515   26.1477  -77.1701 C.3       8 UNK         0.0270 
     31 CB        -71.1426   25.0384  -76.1258 C.3       8 UNK        -0.1976 
     32 N         -72.7505   26.1299  -77.6068 N.am      8 UNK        -0.4313 
     33 C         -73.2393   26.7835  -78.6699 C.2       8 UNK         0.5041 
     34 O         -72.5451   27.4111  -79.4702 O.2       8 UNK        -0.5577 
     35 CA        -74.7667   26.7623  -78.8442 C.3       7 UNK         0.0284 
     36 CB        -75.2219   25.4630  -79.5286 C.3       7 UNK        -0.1958 
     37 N         -75.4731   26.9301  -77.5695 N.am      7 UNK        -0.4454 
     38 C         -75.5354   28.0779  -76.8784 C.2       7 UNK         0.5089 
     39 O         -75.0156   29.1289  -77.2506 O.2       7 UNK        -0.5125 
     40 CA        -76.2845   28.0503  -75.5365 C.3       6 UNK         0.0408 
     41 CB        -77.7663   28.3932  -75.7331 C.3       6 UNK        -0.1791 
     42 N         -76.1706   26.7604  -74.8557 N.am      6 UNK        -0.4762 
     43 C         -75.0974   26.3749  -74.1511 C.2       6 UNK         0.5007 
     44 O         -74.0984   27.0788  -73.9850 O.2       6 UNK        -0.5032 
     45 CA        -75.1284   24.9427  -73.5716 C.3       5 UNK         0.0783 
     46 C46       -75.8493   24.8833  -72.1974 C.3       11 UNK        -0.0857 
     47 S47       -77.6793   25.0185  -72.2906 S.3       11 UNK        -0.2512 
     48 C48       -78.0666   26.2328  -70.9888 C.3       11 UNK         0.0225 
     49 N         -75.6870   23.9517  -74.4966 N.am      5 UNK        -0.4615 
     50 C         -75.3176   23.7274  -75.7632 C.2       4 UNK         0.5053 
     51 O         -74.3624   24.2875  -76.2963 O.2       4 UNK        -0.5105 
     52 CA        -76.1649   22.7464  -76.6011 C.3       4 UNK         0.0263 
     53 CB        -75.3253   21.5234  -77.0046 C.3       4 UNK        -0.1981 
     54 N         -77.4074   22.2865  -75.9666 N.am      4 UNK        -0.4224 
     55 C         -78.4354   23.0628  -75.5954 C.2       3 UNK         0.4895 
     56 O         -78.4536   24.2876  -75.7483 O.2       3 UNK        -0.5091 
     57 CA        -79.6006   22.3592  -74.8823 C.3       3 UNK         0.0250 
     58 CB        -79.1073   21.3980  -73.7754 C.3       3 UNK        -0.1996 
     59 N         -80.4622   23.3858  -74.3071 N.am      3 UNK        -0.4254 
     60 C         -81.6951   23.2190  -73.8172 C.2       2 UNK         0.5004 
     61 O         -82.3052   22.1493  -73.8398 O.2       2 UNK        -0.5226 
     62 CA        -82.3560   24.4467  -73.1696 C.3       2 UNK         0.0269 
     63 CB        -82.2002   24.3846  -71.6406 C.3       2 UNK        -0.1926 
     64 N         -81.7896   25.7109  -73.6477 N.am      2 UNK        -0.4687 
     65 C         -82.2152   26.3635  -74.7370 C.2       1 UNK         0.5165 
     66 O         -83.1567   25.9823  -75.4381 O.2       1 UNK        -0.5079 
     67 H67       -82.0094   27.3293  -79.4825 H         1 UNK         0.0900 
     68 H68       -82.0608   28.9600  -78.8092 H         1 UNK         0.0900 
     69 H69       -80.5344   28.2964  -79.3958 H         1 UNK         0.0900 
     70 H70       -82.2088   28.9377  -76.5844 H         1 UNK         0.2959 
     71 H71       -80.4302   27.5242  -74.8700 H         1 UNK         0.1079 
     72 H72       -83.0253   29.0607  -74.2969 H         1 UNK         0.0837 
     73 H73       -81.9903   28.4449  -73.0458 H         1 UNK         0.0837 
     74 H74       -80.2127   31.5605  -72.2804 H         1 UNK         0.0685 
     75 H75       -81.1796   30.2125  -71.7634 H         1 UNK         0.0685 
     76 H76       -80.1404   27.8971  -71.6475 H         1 UNK         0.1434 
     77 H77       -75.8595   27.7866  -71.3972 H         1 UNK         0.1329 
     78 H78       -77.8286   31.3641  -72.6668 H         1 UNK         0.1335 
     79 H79       -74.7374   29.6818  -72.8443 H         1 UNK         0.0680 
     80 H80       -75.4297   31.2846  -72.6666 H         1 UNK         0.0680 
     81 H81       -72.9401   31.9769  -71.5913 H         1 UNK         0.1032 
     82 H82       -72.3899   31.3718  -70.0669 H         1 UNK         0.1032 
     83 H83       -70.9142   30.4339  -71.5974 H         1 UNK         0.0461 
     84 H84       -72.3072   26.6794  -71.1501 H         1 UNK         0.3453 
     85 H85       -72.8025   27.6349  -72.5277 H         1 UNK         0.3453 
     86 H86       -73.0637   30.3572  -73.4607 H         1 UNK         0.2984 
     87 H87       -72.8334   30.0009  -75.5182 H         1 UNK         0.0554 
     88 H88       -71.0578   31.6401  -75.9317 H         1 UNK         0.0847 
     89 H89       -71.3273   30.6877  -77.3836 H         1 UNK         0.0847 
     90 H90       -69.9181   30.3808  -76.3680 H         1 UNK         0.0847 
     91 H91       -72.8243   27.9392  -76.2158 H         1 UNK         0.3141 
     92 H92       -70.7223   25.9319  -78.0361 H         1 UNK         0.0743 
     93 H93       -71.7582   25.2006  -75.2397 H         1 UNK         0.0784 
     94 H94       -71.3935   24.0583  -76.5321 H         1 UNK         0.0784 
     95 H95       -70.1025   24.9986  -75.7992 H         1 UNK         0.0784 
     96 H96       -73.3909   25.5616  -77.0507 H         1 UNK         0.3213 
     97 H97       -75.0392   27.5986  -79.4920 H         1 UNK         0.0855 
     98 H98       -74.9363   24.5790  -78.9583 H         1 UNK         0.0814 
     99 H99       -74.7683   25.3684  -80.5162 H         1 UNK         0.0814 
    100 H100      -76.3031   25.4420  -79.6665 H         1 UNK         0.0814 
    101 H101      -75.8991   26.1084  -77.1671 H         1 UNK         0.3105 
    102 H102      -75.8482   28.8223  -74.8998 H         1 UNK         0.0547 
    103 H103      -77.8862   29.3466  -76.2493 H         1 UNK         0.0837 
    104 H104      -78.2801   27.6327  -76.3211 H         1 UNK         0.0837 
    105 H105      -78.2738   28.4824  -74.7734 H         1 UNK         0.0837 
    106 H106      -76.9506   26.1193  -74.9341 H         1 UNK         0.3020 
    107 H107      -74.0847   24.6624  -73.4132 H         1 UNK         0.1245 
    108 H108      -75.4400   25.6285  -71.5157 H         1 UNK         0.0781 
    109 H109      -75.6279   23.9249  -71.7252 H         1 UNK         0.0781 
    110 H110      -77.3892   26.1029  -70.1434 H         1 UNK         0.0836 
    111 H111      -79.0641   26.0154  -70.6043 H         1 UNK         0.0836 
    112 H112      -76.5047   23.4677  -74.1581 H         1 UNK         0.3022 
    113 H113      -76.4486   23.2785  -77.5109 H         1 UNK         0.0747 
    114 H114      -75.8745   20.8694  -77.6822 H         1 UNK         0.0793 
    115 H115      -74.4136   21.8264  -77.5219 H         1 UNK         0.0793 
    116 H116      -75.0262   20.9355  -76.1360 H         1 UNK         0.0793 
    117 H117      -77.4720   21.2944  -75.7889 H         1 UNK         0.3047 
    118 H118      -80.1676   21.8026  -75.6311 H         1 UNK         0.0822 
    119 H119      -78.5143   20.5793  -74.1834 H         1 UNK         0.0807 
    120 H120      -79.9392   20.9374  -73.2426 H         1 UNK         0.0807 
    121 H121      -78.4930   21.9169  -73.0382 H         1 UNK         0.0807 
    122 H122      -80.0550   24.3126  -74.3262 H         1 UNK         0.2946 
    123 H123      -83.4221   24.4097  -73.4071 H         1 UNK         0.1144 
    124 H124      -82.7048   25.2204  -71.1555 H         1 UNK         0.0793 
    125 H125      -81.1519   24.4023  -71.3392 H         1 UNK         0.0793 
    126 H126      -82.6378   23.4684  -71.2413 H         1 UNK         0.0793 
    127 H127      -81.0191   26.0872  -73.1151 H         1 UNK         0.2896 
@<TRIPOS>BOND
     1    1    2 1    
     2    1   67 1    
     3    1   68 1    
     4    1   69 1    
     5    2    3 2    
     6    2    4 am   BACKBONE|DICT|INTERRES
     7    4    5 1    
     8    4   70 1    
     9    5    6 1    
    10    5   65 1    
    11    5   71 1    
    12    6    7 1    
    13    6   72 1    
    14    6   73 1    
    15    7    8 1    
    16    8    9 1    
    17    8   74 1    
    18    8   75 1    
    19    9   10 ar   
    20    9   14 ar   
    21   10   11 ar   
    22   10   76 1    
    23   11   12 ar   
    24   11   48 1    
    25   12   13 ar   
    26   12   77 1    
    27   13   14 ar   
    28   13   15 1    
    29   14   78 1    
    30   15   16 1    
    31   15   79 1    
    32   15   80 1    
    33   16   17 1    
    34   17   18 1    
    35   17   81 1    
    36   17   82 1    
    37   18   19 1    
    38   18   22 1    
    39   18   83 1    
    40   19   20 am   BACKBONE|DICT|INTERRES
    41   19   21 2    
    42   20   84 1    
    43   20   85 1    
    44   22   23 am   BACKBONE|DICT|INTERRES
    45   22   86 1    
    46   23   24 2    
    47   23   25 1    
    48   25   26 1    
    49   25   27 1    
    50   25   87 1    
    51   26   88 1    
    52   26   89 1    
    53   26   90 1    
    54   27   28 am   BACKBONE|DICT|INTERRES
    55   27   91 1    
    56   28   29 2    
    57   28   30 1    
    58   30   31 1    
    59   30   32 1    
    60   30   92 1    
    61   31   93 1    
    62   31   94 1    
    63   31   95 1    
    64   32   33 am   BACKBONE|DICT|INTERRES
    65   32   96 1    
    66   33   34 2    
    67   33   35 1    
    68   35   36 1    
    69   35   37 1    
    70   35   97 1    
    71   36   98 1    
    72   36   99 1    
    73   36  100 1    
    74   37   38 am   BACKBONE|DICT|INTERRES
    75   37  101 1    
    76   38   39 2    
    77   38   40 1    
    78   40   41 1    
    79   40   42 1    
    80   40  102 1    
    81   41  103 1    
    82   41  104 1    
    83   41  105 1    
    84   42   43 am   BACKBONE|DICT|INTERRES
    85   42  106 1    
    86   43   44 2    
    87   43   45 1    
    88   45   46 1    
    89   45   49 1    
    90   45  107 1    
    91   46   47 1    
    92   46  108 1    
    93   46  109 1    
    94   47   48 1    
    95   48  110 1    
    96   48  111 1    
    97   49   50 am   BACKBONE|DICT|INTERRES
    98   49  112 1    
    99   50   51 2    
   100   50   52 1    
   101   52   53 1    
   102   52   54 1    
   103   52  113 1    
   104   53  114 1    
   105   53  115 1    
   106   53  116 1    
   107   54   55 am   BACKBONE|DICT|INTERRES
   108   54  117 1    
   109   55   56 2    
   110   55   57 1    
   111   57   58 1    
   112   57   59 1    
   113   57  118 1    
   114   58  119 1    
   115   58  120 1    
   116   58  121 1    
   117   59   60 am   BACKBONE|DICT|INTERRES
   118   59  122 1    
   119   60   61 2    
   120   60   62 1    
   121   62   63 1    
   122   62   64 1    
   123   62  123 1    
   124   63  124 1    
   125   63  125 1    
   126   63  126 1    
   127   64   65 am   BACKBONE|DICT|INTERRES
   128   64  127 1    
   129   65   66 2    
@<TRIPOS>SUBSTRUCTURE
     1 UNK         1 GROUP             0       ****    0 ROOT    
