@<TRIPOS>MOLECULE
3R135
127   129    1
SMALL
USER_CHARGES


@<TRIPOS>ATOM
      1 CA        -83.8863   26.7547  -70.5267 C.3       0 UNK        -0.1998 
      2 C         -83.6351   27.2104  -71.9562 C.2       0 UNK         0.4909 
      3 O         -84.5270   27.1049  -72.7986 O.2       0 UNK        -0.5240 
      4 N         -82.4273   27.7190  -72.2329 N.am      1 UNK        -0.4739 
      5 CA        -81.9962   28.1890  -73.5568 C.3       1 UNK         0.0864 
      6 C6        -80.7211   29.0624  -73.4702 C.3       11 UNK        -0.0881 
      7 S7        -81.0019   30.6352  -72.5777 S.3       11 UNK        -0.2682 
      8 C8        -80.5348   30.2606  -70.8522 C.3       11 UNK         0.0289 
      9 C9        -79.0819   29.8289  -70.7260 C.ar      11 UNK        -0.0687 
     10 C10       -78.7623   28.4789  -70.5569 C.ar      11 UNK        -0.0823 
     11 C11       -77.4283   28.0644  -70.5235 C.ar      11 UNK        -0.0830 
     12 C12       -76.4094   29.0178  -70.5994 C.ar      11 UNK        -0.1021 
     13 C13       -76.7172   30.3729  -70.7486 C.ar      11 UNK        -0.0753 
     14 C14       -78.0552   30.7743  -70.8070 C.ar      11 UNK        -0.0933 
     15 C15       -75.6030   31.3999  -70.8720 C.3       11 UNK         0.0166 
     16 S16       -75.3951   31.9841  -72.5857 S.3       11 UNK        -0.2615 
     17 C17       -74.8455   30.4813  -73.4682 C.3       11 UNK        -0.0865 
     18 CA        -73.3002   30.3844  -73.5666 C.3       10 UNK         0.0862 
     19 C         -72.6812   29.6670  -72.3400 C.2       10 UNK         0.5551 
     20 N         -71.9359   30.3812  -71.5075 N.am      10 UNK        -0.7319 
     21 O         -72.9039   28.4782  -72.1199 O.2       10 UNK        -0.5018 
     22 N         -72.8957   29.7082  -74.8023 N.am      10 UNK        -0.4509 
     23 C         -71.7797   29.9872  -75.4864 C.2       10 UNK         0.4899 
     24 O         -70.9927   30.8852  -75.1805 O.2       10 UNK        -0.4839 
     25 CA        -71.5130   29.1185  -76.7286 C.3       9 UNK         0.0222 
     26 CB        -70.1590   29.4176  -77.4078 C.3       9 UNK        -0.1966 
     27 N         -71.6596   27.6876  -76.4486 N.am      9 UNK        -0.4218 
     28 C         -70.9400   26.9387  -75.5973 C.2       9 UNK         0.5020 
     29 O         -69.9926   27.3688  -74.9375 O.2       9 UNK        -0.5274 
     30 CA        -71.3334   25.4554  -75.4376 C.3       8 UNK         0.0270 
     31 CB        -71.8717   25.1976  -74.0199 C.3       8 UNK        -0.1976 
     32 N         -72.3205   24.9890  -76.4171 N.am      8 UNK        -0.4313 
     33 C         -72.0765   24.7815  -77.7187 C.2       8 UNK         0.5041 
     34 O         -70.9595   24.8745  -78.2286 O.2       8 UNK        -0.5577 
     35 CA        -73.2896   24.4658  -78.6120 C.3       7 UNK         0.0284 
     36 CB        -73.5953   22.9599  -78.5994 C.3       7 UNK        -0.1958 
     37 N         -74.4929   25.2206  -78.2418 N.am      7 UNK        -0.4454 
     38 C         -74.6054   26.5569  -78.2882 C.2       7 UNK         0.5089 
     39 O         -73.7103   27.3042  -78.6803 O.2       7 UNK        -0.5125 
     40 CA        -75.9079   27.1706  -77.7459 C.3       6 UNK         0.0408 
     41 CB        -77.0497   27.0516  -78.7669 C.3       6 UNK        -0.1791 
     42 N         -76.3064   26.5718  -76.4709 N.am      6 UNK        -0.4762 
     43 C         -75.6103   26.6897  -75.3296 C.2       6 UNK         0.5007 
     44 O         -74.6095   27.3980  -75.2097 O.2       6 UNK        -0.5032 
     45 CA        -76.0939   25.8441  -74.1366 C.3       5 UNK         0.0783 
     46 C46       -77.1665   26.6115  -73.3318 C.3       11 UNK        -0.0857 
     47 S47       -77.7939   25.6709  -71.8940 S.3       11 UNK        -0.2512 
     48 C48       -77.0852   26.5816  -70.4785 C.3       11 UNK         0.0225 
     49 N         -76.5624   24.5286  -74.5815 N.am      5 UNK        -0.4615 
     50 C         -75.7671   23.5522  -75.0363 C.2       4 UNK         0.5053 
     51 O         -74.5440   23.6514  -75.1131 O.2       4 UNK        -0.5105 
     52 CA        -76.4528   22.2651  -75.5268 C.3       4 UNK         0.0263 
     53 CB        -76.7200   21.3163  -74.3478 C.3       4 UNK        -0.1981 
     54 N         -77.7061   22.5270  -76.2381 N.am      4 UNK        -0.4224 
     55 C         -77.7984   23.2046  -77.3918 C.2       3 UNK         0.4895 
     56 O         -76.8242   23.6056  -78.0263 O.2       3 UNK        -0.5091 
     57 CA        -79.2131   23.5417  -77.8966 C.3       3 UNK         0.0250 
     58 CB        -79.7115   22.4561  -78.8630 C.3       3 UNK        -0.1996 
     59 N         -80.1932   23.7307  -76.8201 N.am      3 UNK        -0.4254 
     60 C         -80.1075   24.6664  -75.8634 C.2       2 UNK         0.5004 
     61 O         -79.1849   25.4812  -75.7869 O.2       2 UNK        -0.5226 
     62 CA        -81.1890   24.6100  -74.7710 C.3       2 UNK         0.0269 
     63 CB        -80.8590   23.4979  -73.7603 C.3       2 UNK        -0.1926 
     64 N         -81.3489   25.8661  -74.0354 N.am      2 UNK        -0.4687 
     65 C         -81.8038   27.0193  -74.5476 C.2       1 UNK         0.5165 
     66 O         -82.1125   27.1700  -75.7310 O.2       1 UNK        -0.5079 
     67 H67       -83.0174   26.9129  -69.8882 H         1 UNK         0.0900 
     68 H68       -84.7245   27.3047  -70.0999 H         1 UNK         0.0900 
     69 H69       -84.1309   25.6929  -70.5095 H         1 UNK         0.0900 
     70 H70       -81.7419   27.7913  -71.4974 H         1 UNK         0.2959 
     71 H71       -82.7988   28.8083  -73.9645 H         1 UNK         0.1079 
     72 H72       -80.3853   29.3314  -74.4738 H         1 UNK         0.0837 
     73 H73       -79.8938   28.5079  -73.0278 H         1 UNK         0.0837 
     74 H74       -80.6963   31.1541  -70.2473 H         1 UNK         0.0685 
     75 H75       -81.2033   29.5013  -70.4459 H         1 UNK         0.0685 
     76 H76       -79.5483   27.7385  -70.5046 H         1 UNK         0.1434 
     77 H77       -75.3743   28.7030  -70.5801 H         1 UNK         0.1329 
     78 H78       -78.2967   31.8196  -70.9449 H         1 UNK         0.1335 
     79 H79       -74.6588   30.9955  -70.5052 H         1 UNK         0.0680 
     80 H80       -75.8321   32.2561  -70.2358 H         1 UNK         0.0680 
     81 H81       -75.2861   29.5808  -73.0397 H         1 UNK         0.1032 
     82 H82       -75.2747   30.5520  -74.4692 H         1 UNK         0.1032 
     83 H83       -72.9090   31.4037  -73.6062 H         1 UNK         0.0461 
     84 H84       -71.7522   31.3570  -71.6820 H         1 UNK         0.3453 
     85 H85       -71.5344   29.9314  -70.6998 H         1 UNK         0.3453 
     86 H86       -73.4504   28.8958  -75.0633 H         1 UNK         0.2984 
     87 H87       -72.2972   29.3675  -77.4447 H         1 UNK         0.0554 
     88 H88       -70.1050   30.4594  -77.7264 H         1 UNK         0.0847 
     89 H89       -70.0165   28.8004  -78.2949 H         1 UNK         0.0847 
     90 H90       -69.3179   29.2407  -76.7368 H         1 UNK         0.0847 
     91 H91       -72.4198   27.2366  -76.9437 H         1 UNK         0.3141 
     92 H92       -70.4241   24.8652  -75.5684 H         1 UNK         0.0743 
     93 H93       -72.7735   25.7778  -73.8220 H         1 UNK         0.0784 
     94 H94       -72.1069   24.1442  -73.8673 H         1 UNK         0.0784 
     95 H95       -71.1364   25.4772  -73.2643 H         1 UNK         0.0784 
     96 H96       -73.2517   24.7895  -76.0612 H         1 UNK         0.3213 
     97 H97       -73.0273   24.7504  -79.6333 H         1 UNK         0.0855 
     98 H98       -73.8776   22.6135  -77.6052 H         1 UNK         0.0814 
     99 H99       -72.7241   22.3823  -78.9110 H         1 UNK         0.0814 
    100 H100      -74.4086   22.7141  -79.2826 H         1 UNK         0.0814 
    101 H101      -75.3072   24.6743  -77.9668 H         1 UNK         0.3105 
    102 H102      -75.7278   28.2333  -77.5691 H         1 UNK         0.0547 
    103 H103      -76.7955   27.5697  -79.6924 H         1 UNK         0.0837 
    104 H104      -77.2612   26.0149  -79.0261 H         1 UNK         0.0837 
    105 H105      -77.9698   27.4969  -78.3881 H         1 UNK         0.0837 
    106 H106      -77.1443   26.0008  -76.4640 H         1 UNK         0.3020 
    107 H107      -75.2322   25.6887  -73.4834 H         1 UNK         0.1245 
    108 H108      -78.0229   26.8588  -73.9605 H         1 UNK         0.0781 
    109 H109      -76.7617   27.5695  -73.0069 H         1 UNK         0.0781 
    110 H110      -76.0045   26.4306  -70.4703 H         1 UNK         0.0836 
    111 H111      -77.4651   26.1520  -69.5505 H         1 UNK         0.0836 
    112 H112      -77.5649   24.4047  -74.6015 H         1 UNK         0.3022 
    113 H113      -75.7712   21.7679  -76.2198 H         1 UNK         0.0747 
    114 H114      -77.1357   20.3675  -74.6877 H         1 UNK         0.0793 
    115 H115      -75.7959   21.0902  -73.8138 H         1 UNK         0.0793 
    116 H116      -77.4148   21.7499  -73.6271 H         1 UNK         0.0793 
    117 H117      -78.5586   22.2220  -75.7928 H         1 UNK         0.3047 
    118 H118      -79.1457   24.4830  -78.4457 H         1 UNK         0.0822 
    119 H119      -80.6712   22.7266  -79.3039 H         1 UNK         0.0807 
    120 H120      -79.8287   21.4926  -78.3654 H         1 UNK         0.0807 
    121 H121      -79.0087   22.3146  -79.6856 H         1 UNK         0.0807 
    122 H122      -80.9750   23.0909  -76.8076 H         1 UNK         0.2946 
    123 H123      -82.1444   24.3845  -75.2503 H         1 UNK         0.1144 
    124 H124      -81.6343   23.4119  -72.9986 H         1 UNK         0.0793 
    125 H125      -79.9112   23.6828  -73.2525 H         1 UNK         0.0793 
    126 H126      -80.7838   22.5253  -74.2482 H         1 UNK         0.0793 
    127 H127      -81.1081   25.8466  -73.0560 H         1 UNK         0.2896 
@<TRIPOS>BOND
     1    1    2 1    
     2    1   67 1    
     3    1   68 1    
     4    1   69 1    
     5    2    3 2    
     6    2    4 am   BACKBONE|DICT|INTERRES
     7    4    5 1    
     8    4   70 1    
     9    5    6 1    
    10    5   65 1    
    11    5   71 1    
    12    6    7 1    
    13    6   72 1    
    14    6   73 1    
    15    7    8 1    
    16    8    9 1    
    17    8   74 1    
    18    8   75 1    
    19    9   10 ar   
    20    9   14 ar   
    21   10   11 ar   
    22   10   76 1    
    23   11   12 ar   
    24   11   48 1    
    25   12   13 ar   
    26   12   77 1    
    27   13   14 ar   
    28   13   15 1    
    29   14   78 1    
    30   15   16 1    
    31   15   79 1    
    32   15   80 1    
    33   16   17 1    
    34   17   18 1    
    35   17   81 1    
    36   17   82 1    
    37   18   19 1    
    38   18   22 1    
    39   18   83 1    
    40   19   20 am   BACKBONE|DICT|INTERRES
    41   19   21 2    
    42   20   84 1    
    43   20   85 1    
    44   22   23 am   BACKBONE|DICT|INTERRES
    45   22   86 1    
    46   23   24 2    
    47   23   25 1    
    48   25   26 1    
    49   25   27 1    
    50   25   87 1    
    51   26   88 1    
    52   26   89 1    
    53   26   90 1    
    54   27   28 am   BACKBONE|DICT|INTERRES
    55   27   91 1    
    56   28   29 2    
    57   28   30 1    
    58   30   31 1    
    59   30   32 1    
    60   30   92 1    
    61   31   93 1    
    62   31   94 1    
    63   31   95 1    
    64   32   33 am   BACKBONE|DICT|INTERRES
    65   32   96 1    
    66   33   34 2    
    67   33   35 1    
    68   35   36 1    
    69   35   37 1    
    70   35   97 1    
    71   36   98 1    
    72   36   99 1    
    73   36  100 1    
    74   37   38 am   BACKBONE|DICT|INTERRES
    75   37  101 1    
    76   38   39 2    
    77   38   40 1    
    78   40   41 1    
    79   40   42 1    
    80   40  102 1    
    81   41  103 1    
    82   41  104 1    
    83   41  105 1    
    84   42   43 am   BACKBONE|DICT|INTERRES
    85   42  106 1    
    86   43   44 2    
    87   43   45 1    
    88   45   46 1    
    89   45   49 1    
    90   45  107 1    
    91   46   47 1    
    92   46  108 1    
    93   46  109 1    
    94   47   48 1    
    95   48  110 1    
    96   48  111 1    
    97   49   50 am   BACKBONE|DICT|INTERRES
    98   49  112 1    
    99   50   51 2    
   100   50   52 1    
   101   52   53 1    
   102   52   54 1    
   103   52  113 1    
   104   53  114 1    
   105   53  115 1    
   106   53  116 1    
   107   54   55 am   BACKBONE|DICT|INTERRES
   108   54  117 1    
   109   55   56 2    
   110   55   57 1    
   111   57   58 1    
   112   57   59 1    
   113   57  118 1    
   114   58  119 1    
   115   58  120 1    
   116   58  121 1    
   117   59   60 am   BACKBONE|DICT|INTERRES
   118   59  122 1    
   119   60   61 2    
   120   60   62 1    
   121   62   63 1    
   122   62   64 1    
   123   62  123 1    
   124   63  124 1    
   125   63  125 1    
   126   63  126 1    
   127   64   65 am   BACKBONE|DICT|INTERRES
   128   64  127 1    
   129   65   66 2    
@<TRIPOS>SUBSTRUCTURE
     1 UNK         1 GROUP             0       ****    0 ROOT    
