@<TRIPOS>MOLECULE
3R135
127   129    1
SMALL
USER_CHARGES


@<TRIPOS>ATOM
      1 CA        -81.0346   24.1591  -68.2908 C.3       0 UNK        -0.1998 
      2 C         -81.2503   24.7619  -69.6708 C.2       0 UNK         0.4909 
      3 O         -82.3445   25.2446  -69.9635 O.2       0 UNK        -0.5240 
      4 N         -80.2146   24.7379  -70.5215 N.am      1 UNK        -0.4739 
      5 CA        -80.2502   25.2573  -71.8968 C.3       1 UNK         0.0864 
      6 C6        -78.8160   25.5005  -72.4415 C.3       11 UNK        -0.0881 
      7 S7        -78.6929   27.0253  -73.4323 S.3       11 UNK        -0.2682 
      8 C8        -78.2582   28.2262  -72.1255 C.3       11 UNK         0.0289 
      9 C9        -77.8293   29.6033  -72.6307 C.ar      11 UNK        -0.0687 
     10 C10       -78.2944   30.1351  -73.8414 C.ar      11 UNK        -0.0823 
     11 C11       -77.8692   31.3938  -74.2756 C.ar      11 UNK        -0.0830 
     12 C12       -77.0029   32.1418  -73.4758 C.ar      11 UNK        -0.1021 
     13 C13       -76.5543   31.6403  -72.2527 C.ar      11 UNK        -0.0753 
     14 C14       -76.9649   30.3697  -71.8394 C.ar      11 UNK        -0.0933 
     15 C15       -75.6481   32.4930  -71.3780 C.3       11 UNK         0.0166 
     16 S16       -73.9191   32.4305  -71.9368 S.3       11 UNK        -0.2615 
     17 C17       -73.3056   30.9802  -71.0186 C.3       11 UNK        -0.0865 
     18 CA        -71.9969   30.4144  -71.6273 C.3       10 UNK         0.0862 
     19 C         -71.3013   29.4288  -70.6402 C.2       10 UNK         0.5551 
     20 N         -71.0818   28.1649  -70.9812 N.am      10 UNK        -0.7319 
     21 O         -70.9433   29.8273  -69.5345 O.2       10 UNK        -0.5018 
     22 N         -72.2214   29.8808  -72.9808 N.am      10 UNK        -0.4509 
     23 C         -71.2658   29.6939  -73.8995 C.2       10 UNK         0.4899 
     24 O         -70.0952   30.0476  -73.7464 O.2       10 UNK        -0.4839 
     25 CA        -71.6917   28.9782  -75.2006 C.3       9 UNK         0.0222 
     26 CB        -70.4919   28.3908  -75.9725 C.3       9 UNK        -0.1966 
     27 N         -72.7189   27.9433  -75.0110 N.am      9 UNK        -0.4218 
     28 C         -72.6736   26.8983  -74.1679 C.2       9 UNK         0.5020 
     29 O         -71.7595   26.6916  -73.3690 O.2       9 UNK        -0.5274 
     30 CA        -73.8521   25.9155  -74.2228 C.3       8 UNK         0.0270 
     31 CB        -75.1103   26.5282  -73.5875 C.3       8 UNK        -0.1976 
     32 N         -74.1474   25.4795  -75.5872 N.am      8 UNK        -0.4313 
     33 C         -73.3398   24.7168  -76.3388 C.2       8 UNK         0.5041 
     34 O         -72.2804   24.2316  -75.9400 O.2       8 UNK        -0.5577 
     35 CA        -73.7829   24.4605  -77.7872 C.3       7 UNK         0.0284 
     36 CB        -74.8211   23.3284  -77.8566 C.3       7 UNK        -0.1958 
     37 N         -74.3184   25.6747  -78.4058 N.am      7 UNK        -0.4454 
     38 C         -73.5598   26.6733  -78.8799 C.2       7 UNK         0.5089 
     39 O         -72.3300   26.6398  -78.9198 O.2       7 UNK        -0.5125 
     40 CA        -74.2894   27.9232  -79.4058 C.3       6 UNK         0.0408 
     41 CB        -74.4558   27.8420  -80.9315 C.3       6 UNK        -0.1791 
     42 N         -75.6006   28.1447  -78.7893 N.am      6 UNK        -0.4762 
     43 C         -75.7907   28.5136  -77.5136 C.2       6 UNK         0.5007 
     44 O         -74.8762   28.6854  -76.7065 O.2       6 UNK        -0.5032 
     45 CA        -77.2585   28.6321  -77.0493 C.3       5 UNK         0.0783 
     46 C46       -77.9412   29.9292  -77.5537 C.3       11 UNK        -0.0857 
     47 S47       -77.2031   31.4852  -76.9496 S.3       11 UNK        -0.2512 
     48 C48       -78.3382   31.9573  -75.6065 C.3       11 UNK         0.0225 
     49 N         -78.0541   27.4634  -77.4451 N.am      5 UNK        -0.4615 
     50 C         -77.7892   26.1926  -77.1243 C.2       4 UNK         0.5053 
     51 O         -76.8239   25.8360  -76.4446 O.2       4 UNK        -0.5105 
     52 CA        -78.7182   25.1362  -77.7253 C.3       4 UNK         0.0263 
     53 CB        -78.3192   24.8428  -79.1862 C.3       4 UNK        -0.1981 
     54 N         -78.6171   23.9313  -76.9098 N.am      4 UNK        -0.4224 
     55 C         -79.4361   22.8754  -76.9530 C.2       3 UNK         0.4895 
     56 O         -80.3862   22.7794  -77.7307 O.2       3 UNK        -0.5091 
     57 CA        -79.1531   21.7358  -75.9567 C.3       3 UNK         0.0250 
     58 CB        -77.6619   21.6024  -75.5823 C.3       3 UNK        -0.1996 
     59 N         -79.9410   21.9230  -74.7393 N.am      3 UNK        -0.4254 
     60 C         -81.2493   21.6583  -74.6109 C.2       2 UNK         0.5004 
     61 O         -81.9308   21.1126  -75.4794 O.2       2 UNK        -0.5226 
     62 CA        -81.9164   22.0523  -73.2797 C.3       2 UNK         0.0269 
     63 CB        -82.1241   20.8133  -72.3928 C.3       2 UNK        -0.1926 
     64 N         -81.1727   23.0620  -72.5185 N.am      2 UNK        -0.4687 
     65 C         -81.0751   24.3599  -72.8472 C.2       1 UNK         0.5165 
     66 O         -81.6033   24.8485  -73.8463 O.2       1 UNK        -0.5079 
     67 H67       -81.2093   24.9111  -67.5218 H         1 UNK         0.0900 
     68 H68       -80.0220   23.7760  -68.1659 H         1 UNK         0.0900 
     69 H69       -81.7308   23.3369  -68.1279 H         1 UNK         0.0900 
     70 H70       -79.3383   24.3343  -70.2211 H         1 UNK         0.2959 
     71 H71       -80.7735   26.2156  -71.8516 H         1 UNK         0.1079 
     72 H72       -78.0970   25.5751  -71.6243 H         1 UNK         0.0837 
     73 H73       -78.4607   24.6641  -73.0469 H         1 UNK         0.0837 
     74 H74       -79.1122   28.3472  -71.4578 H         1 UNK         0.0685 
     75 H75       -77.4499   27.8029  -71.5272 H         1 UNK         0.0685 
     76 H76       -78.9802   29.5699  -74.4564 H         1 UNK         0.1434 
     77 H77       -76.6757   33.1191  -73.8046 H         1 UNK         0.1329 
     78 H78       -76.6180   29.9799  -70.8921 H         1 UNK         0.1335 
     79 H79       -75.7153   32.1890  -70.3321 H         1 UNK         0.0680 
     80 H80       -75.9872   33.5295  -71.4122 H         1 UNK         0.0680 
     81 H81       -73.1513   31.2960  -69.9847 H         1 UNK         0.1032 
     82 H82       -74.0745   30.2066  -70.9896 H         1 UNK         0.1032 
     83 H83       -71.3013   31.2505  -71.7244 H         1 UNK         0.0461 
     84 H84       -71.3503   27.8037  -71.8925 H         1 UNK         0.3453 
     85 H85       -70.6253   27.5548  -70.3227 H         1 UNK         0.3453 
     86 H86       -73.1582   29.5704  -73.1901 H         1 UNK         0.2984 
     87 H87       -72.1482   29.7426  -75.8308 H         1 UNK         0.0554 
     88 H88       -70.8118   27.9190  -76.9017 H         1 UNK         0.0847 
     89 H89       -69.9626   27.6418  -75.3824 H         1 UNK         0.0847 
     90 H90       -69.7734   29.1676  -76.2366 H         1 UNK         0.0847 
     91 H91       -73.5426   28.0495  -75.6027 H         1 UNK         0.3141 
     92 H92       -73.5763   25.0329  -73.6418 H         1 UNK         0.0743 
     93 H93       -74.9127   26.8703  -72.5708 H         1 UNK         0.0784 
     94 H94       -75.4823   27.3825  -74.1552 H         1 UNK         0.0784 
     95 H95       -75.9137   25.7941  -73.5317 H         1 UNK         0.0784 
     96 H96       -75.0421   25.7727  -75.9747 H         1 UNK         0.3213 
     97 H97       -72.9041   24.1408  -78.3522 H         1 UNK         0.0855 
     98 H98       -75.7283   23.5713  -77.3056 H         1 UNK         0.0814 
     99 H99       -74.4198   22.4089  -77.4285 H         1 UNK         0.0814 
    100 H100      -75.1010   23.1089  -78.8869 H         1 UNK         0.0814 
    101 H101      -75.3182   25.8061  -78.3745 H         1 UNK         0.3105 
    102 H102      -73.6613   28.7873  -79.1781 H         1 UNK         0.0547 
    103 H103      -75.0906   27.0055  -81.2263 H         1 UNK         0.0837 
    104 H104      -74.8938   28.7559  -81.3332 H         1 UNK         0.0837 
    105 H105      -73.4908   27.7061  -81.4220 H         1 UNK         0.0837 
    106 H106      -76.4101   28.0107  -79.3780 H         1 UNK         0.3020 
    107 H107      -77.2386   28.6478  -75.9580 H         1 UNK         0.1245 
    108 H108      -78.9971   29.9170  -77.2802 H         1 UNK         0.0781 
    109 H109      -77.9291   29.9624  -78.6447 H         1 UNK         0.0781 
    110 H110      -78.3742   33.0465  -75.5514 H         1 UNK         0.0836 
    111 H111      -79.3585   31.6392  -75.8246 H         1 UNK         0.0836 
    112 H112      -78.8636   27.6536  -78.0179 H         1 UNK         0.3022 
    113 H113      -79.7453   25.5050  -77.6835 H         1 UNK         0.0747 
    114 H114      -78.3534   25.7467  -79.7955 H         1 UNK         0.0793 
    115 H115      -78.9950   24.1243  -79.6496 H         1 UNK         0.0793 
    116 H116      -77.3089   24.4390  -79.2561 H         1 UNK         0.0793 
    117 H117      -77.8705   23.9671  -76.2270 H         1 UNK         0.3047 
    118 H118      -79.4597   20.8036  -76.4365 H         1 UNK         0.0822 
    119 H119      -77.0420   21.5046  -76.4747 H         1 UNK         0.0807 
    120 H120      -77.4917   20.7100  -74.9797 H         1 UNK         0.0807 
    121 H121      -77.2933   22.4560  -75.0121 H         1 UNK         0.0807 
    122 H122      -79.4775   22.3664  -73.9610 H         1 UNK         0.2946 
    123 H123      -82.8971   22.4668  -73.5253 H         1 UNK         0.1144 
    124 H124      -82.7048   20.0517  -72.9153 H         1 UNK         0.0793 
    125 H125      -82.6686   21.0636  -71.4820 H         1 UNK         0.0793 
    126 H126      -81.1755   20.3585  -72.1046 H         1 UNK         0.0793 
    127 H127      -80.7225   22.7527  -71.6691 H         1 UNK         0.2896 
@<TRIPOS>BOND
     1    1    2 1    
     2    1   67 1    
     3    1   68 1    
     4    1   69 1    
     5    2    3 2    
     6    2    4 am   BACKBONE|DICT|INTERRES
     7    4    5 1    
     8    4   70 1    
     9    5    6 1    
    10    5   65 1    
    11    5   71 1    
    12    6    7 1    
    13    6   72 1    
    14    6   73 1    
    15    7    8 1    
    16    8    9 1    
    17    8   74 1    
    18    8   75 1    
    19    9   10 ar   
    20    9   14 ar   
    21   10   11 ar   
    22   10   76 1    
    23   11   12 ar   
    24   11   48 1    
    25   12   13 ar   
    26   12   77 1    
    27   13   14 ar   
    28   13   15 1    
    29   14   78 1    
    30   15   16 1    
    31   15   79 1    
    32   15   80 1    
    33   16   17 1    
    34   17   18 1    
    35   17   81 1    
    36   17   82 1    
    37   18   19 1    
    38   18   22 1    
    39   18   83 1    
    40   19   20 am   BACKBONE|DICT|INTERRES
    41   19   21 2    
    42   20   84 1    
    43   20   85 1    
    44   22   23 am   BACKBONE|DICT|INTERRES
    45   22   86 1    
    46   23   24 2    
    47   23   25 1    
    48   25   26 1    
    49   25   27 1    
    50   25   87 1    
    51   26   88 1    
    52   26   89 1    
    53   26   90 1    
    54   27   28 am   BACKBONE|DICT|INTERRES
    55   27   91 1    
    56   28   29 2    
    57   28   30 1    
    58   30   31 1    
    59   30   32 1    
    60   30   92 1    
    61   31   93 1    
    62   31   94 1    
    63   31   95 1    
    64   32   33 am   BACKBONE|DICT|INTERRES
    65   32   96 1    
    66   33   34 2    
    67   33   35 1    
    68   35   36 1    
    69   35   37 1    
    70   35   97 1    
    71   36   98 1    
    72   36   99 1    
    73   36  100 1    
    74   37   38 am   BACKBONE|DICT|INTERRES
    75   37  101 1    
    76   38   39 2    
    77   38   40 1    
    78   40   41 1    
    79   40   42 1    
    80   40  102 1    
    81   41  103 1    
    82   41  104 1    
    83   41  105 1    
    84   42   43 am   BACKBONE|DICT|INTERRES
    85   42  106 1    
    86   43   44 2    
    87   43   45 1    
    88   45   46 1    
    89   45   49 1    
    90   45  107 1    
    91   46   47 1    
    92   46  108 1    
    93   46  109 1    
    94   47   48 1    
    95   48  110 1    
    96   48  111 1    
    97   49   50 am   BACKBONE|DICT|INTERRES
    98   49  112 1    
    99   50   51 2    
   100   50   52 1    
   101   52   53 1    
   102   52   54 1    
   103   52  113 1    
   104   53  114 1    
   105   53  115 1    
   106   53  116 1    
   107   54   55 am   BACKBONE|DICT|INTERRES
   108   54  117 1    
   109   55   56 2    
   110   55   57 1    
   111   57   58 1    
   112   57   59 1    
   113   57  118 1    
   114   58  119 1    
   115   58  120 1    
   116   58  121 1    
   117   59   60 am   BACKBONE|DICT|INTERRES
   118   59  122 1    
   119   60   61 2    
   120   60   62 1    
   121   62   63 1    
   122   62   64 1    
   123   62  123 1    
   124   63  124 1    
   125   63  125 1    
   126   63  126 1    
   127   64   65 am   BACKBONE|DICT|INTERRES
   128   64  127 1    
   129   65   66 2    
@<TRIPOS>SUBSTRUCTURE
     1 UNK         1 GROUP             0       ****    0 ROOT    
