@<TRIPOS>MOLECULE
3R135
127   129    1
SMALL
USER_CHARGES


@<TRIPOS>ATOM
      1 CA        -84.5749   25.0642  -71.0601 C.3       0 UNK        -0.1998 
      2 C         -83.2368   25.0548  -71.7841 C.2       0 UNK         0.4909 
      3 O         -82.7396   23.9830  -72.1279 O.2       0 UNK        -0.5240 
      4 N         -82.6665   26.2437  -72.0302 N.am      1 UNK        -0.4739 
      5 CA        -81.3635   26.4994  -72.6716 C.3       1 UNK         0.0864 
      6 C6        -80.1613   25.8538  -71.9246 C.3       11 UNK        -0.0881 
      7 S7        -79.9386   26.4907  -70.2298 S.3       11 UNK        -0.2682 
      8 C8        -78.1129   26.5070  -70.0935 C.3       11 UNK         0.0289 
      9 C9        -77.4130   27.7563  -70.6375 C.ar      11 UNK        -0.0687 
     10 C10       -78.0150   28.6212  -71.5608 C.ar      11 UNK        -0.0823 
     11 C11       -77.3423   29.7556  -72.0214 C.ar      11 UNK        -0.0830 
     12 C12       -76.0685   30.0470  -71.5323 C.ar      11 UNK        -0.1021 
     13 C13       -75.4328   29.1764  -70.6457 C.ar      11 UNK        -0.0753 
     14 C14       -76.1110   28.0349  -70.2039 C.ar      11 UNK        -0.0933 
     15 C15       -74.0200   29.4728  -70.1599 C.3       11 UNK         0.0166 
     16 S16       -72.7690   29.1736  -71.4549 S.3       11 UNK        -0.2615 
     17 C17       -72.6948   30.7826  -72.3230 C.3       11 UNK        -0.0865 
     18 CA        -73.3062   30.7466  -73.7555 C.3       10 UNK         0.0862 
     19 C         -73.4890   32.1663  -74.3736 C.2       10 UNK         0.5551 
     20 N         -73.3729   32.3365  -75.6851 N.am      10 UNK        -0.7319 
     21 O         -73.7718   33.1260  -73.6605 O.2       10 UNK        -0.5018 
     22 N         -72.6620   29.7671  -74.6440 N.am      10 UNK        -0.4509 
     23 C         -71.3932   29.7677  -75.0717 C.2       10 UNK         0.4899 
     24 O         -70.5568   30.6172  -74.7598 O.2       10 UNK        -0.4839 
     25 CA        -71.0153   28.6163  -76.0243 C.3       9 UNK         0.0222 
     26 CB        -69.5039   28.5392  -76.3287 C.3       9 UNK        -0.1966 
     27 N         -71.5378   27.3265  -75.5588 N.am      9 UNK        -0.4218 
     28 C         -71.2226   26.6766  -74.4269 C.2       9 UNK         0.5020 
     29 O         -70.3338   27.0324  -73.6517 O.2       9 UNK        -0.5274 
     30 CA        -72.0441   25.4204  -74.0784 C.3       8 UNK         0.0270 
     31 CB        -72.9648   25.7073  -72.8797 C.3       8 UNK        -0.1976 
     32 N         -72.8559   24.9171  -75.1905 N.am      8 UNK        -0.4313 
     33 C         -72.3769   24.2455  -76.2465 C.2       8 UNK         0.5041 
     34 O         -71.1938   23.9290  -76.3767 O.2       8 UNK        -0.5577 
     35 CA        -73.3794   23.8917  -77.3603 C.3       7 UNK         0.0284 
     36 CB        -74.1517   22.6112  -77.0079 C.3       7 UNK        -0.1958 
     37 N         -74.3220   24.9762  -77.6574 N.am      7 UNK        -0.4454 
     38 C         -73.9704   26.1746  -78.1470 C.2       7 UNK         0.5089 
     39 O         -72.8116   26.4985  -78.4055 O.2       7 UNK        -0.5125 
     40 CA        -75.0942   27.2040  -78.3437 C.3       6 UNK         0.0408 
     41 CB        -75.8436   26.9596  -79.6630 C.3       6 UNK        -0.1791 
     42 N         -76.0375   27.2156  -77.2249 N.am      6 UNK        -0.4762 
     43 C         -75.7358   27.6497  -75.9920 C.2       6 UNK         0.5007 
     44 O         -74.6304   28.0912  -75.6782 O.2       6 UNK        -0.5032 
     45 CA        -76.8398   27.5166  -74.9216 C.3       5 UNK         0.0783 
     46 C46       -77.9104   28.6315  -75.0615 C.3       11 UNK        -0.0857 
     47 S47       -77.2879   30.3163  -74.7234 S.3       11 UNK        -0.2512 
     48 C48       -77.9753   30.6552  -73.0701 C.3       11 UNK         0.0225 
     49 N         -77.4546   26.1821  -74.9463 N.am      5 UNK        -0.4615 
     50 C         -76.7955   25.0243  -74.7855 C.2       4 UNK         0.5053 
     51 O         -75.5982   24.9547  -74.5180 O.2       4 UNK        -0.5105 
     52 CA        -77.5709   23.7168  -75.0229 C.3       4 UNK         0.0263 
     53 CB        -78.2277   23.2085  -73.7333 C.3       4 UNK        -0.1981 
     54 N         -78.5771   23.8061  -76.0806 N.am      4 UNK        -0.4224 
     55 C         -78.3416   24.0974  -77.3651 C.2       3 UNK         0.4895 
     56 O         -77.2158   24.3208  -77.8126 O.2       3 UNK        -0.5091 
     57 CA        -79.5583   24.1869  -78.3083 C.3       3 UNK         0.0250 
     58 CB        -79.9030   22.8057  -78.8980 C.3       3 UNK        -0.1996 
     59 N         -80.7417   24.8440  -77.7244 N.am      3 UNK        -0.4254 
     60 C         -81.5169   24.4348  -76.7082 C.2       2 UNK         0.5004 
     61 O         -81.3831   23.3573  -76.1237 O.2       2 UNK        -0.5226 
     62 CA        -82.5826   25.4307  -76.2147 C.3       2 UNK         0.0269 
     63 CB        -83.9971   24.8864  -76.4732 C.3       2 UNK        -0.1926 
     64 N         -82.4387   25.7423  -74.7865 N.am      2 UNK        -0.4687 
     65 C         -81.3237   26.1922  -74.1892 C.2       1 UNK         0.5165 
     66 O         -80.2800   26.4094  -74.8064 O.2       1 UNK        -0.5079 
     67 H67       -84.8931   26.0753  -70.8011 H         1 UNK         0.0900 
     68 H68       -84.5047   24.4848  -70.1389 H         1 UNK         0.0900 
     69 H69       -85.3456   24.6151  -71.6881 H         1 UNK         0.0900 
     70 H70       -83.1516   27.0780  -71.7280 H         1 UNK         0.2959 
     71 H71       -81.2294   27.5809  -72.6193 H         1 UNK         0.1079 
     72 H72       -79.2325   26.0219  -72.4728 H         1 UNK         0.0837 
     73 H73       -80.2808   24.7727  -71.8584 H         1 UNK         0.0837 
     74 H74       -77.8698   26.4043  -69.0347 H         1 UNK         0.0685 
     75 H75       -77.7026   25.6241  -70.5860 H         1 UNK         0.0685 
     76 H76       -79.0062   28.4185  -71.9350 H         1 UNK         0.1434 
     77 H77       -75.5612   30.9397  -71.8678 H         1 UNK         0.1329 
     78 H78       -75.6255   27.3625  -69.5095 H         1 UNK         0.1335 
     79 H79       -73.7793   28.8384  -69.3055 H         1 UNK         0.0680 
     80 H80       -73.9565   30.4985  -69.7946 H         1 UNK         0.0680 
     81 H81       -73.1951   31.5333  -71.7100 H         1 UNK         0.1032 
     82 H82       -71.6516   31.0983  -72.3672 H         1 UNK         0.1032 
     83 H83       -74.3239   30.3722  -73.6634 H         1 UNK         0.0461 
     84 H84       -73.1605   31.5534  -76.2814 H         1 UNK         0.3453 
     85 H85       -73.5036   33.2546  -76.0792 H         1 UNK         0.3453 
     86 H86       -73.2896   29.0450  -74.9955 H         1 UNK         0.2984 
     87 H87       -71.5267   28.8214  -76.9659 H         1 UNK         0.0554 
     88 H88       -69.2782   27.7179  -77.0088 H         1 UNK         0.0847 
     89 H89       -68.9118   28.3994  -75.4240 H         1 UNK         0.0847 
     90 H90       -69.1558   29.4576  -76.8029 H         1 UNK         0.0847 
     91 H91       -72.2845   26.9384  -76.1206 H         1 UNK         0.3141 
     92 H92       -71.3387   24.6394  -73.7872 H         1 UNK         0.0743 
     93 H93       -73.5187   24.8176  -72.5799 H         1 UNK         0.0784 
     94 H94       -72.3902   26.0384  -72.0136 H         1 UNK         0.0784 
     95 H95       -73.6883   26.4920  -73.1080 H         1 UNK         0.0784 
     96 H96       -73.8615   25.0695  -75.1183 H         1 UNK         0.3213 
     97 H97       -72.8074   23.7013  -78.2710 H         1 UNK         0.0855 
     98 H98       -73.4711   21.7648  -76.9067 H         1 UNK         0.0814 
     99 H99       -74.8777   22.3550  -77.7799 H         1 UNK         0.0814 
    100 H100      -74.6839   22.7108  -76.0627 H         1 UNK         0.0814 
    101 H101      -75.3105   24.7862  -77.5155 H         1 UNK         0.3105 
    102 H102      -74.6324   28.1923  -78.4009 H         1 UNK         0.0547 
    103 H103      -75.1568   26.9909  -80.5098 H         1 UNK         0.0837 
    104 H104      -76.3348   25.9866  -79.6814 H         1 UNK         0.0837 
    105 H105      -76.6028   27.7224  -79.8355 H         1 UNK         0.0837 
    106 H106      -76.9434   26.7987  -77.3853 H         1 UNK         0.3020 
    107 H107      -76.3564   27.6243  -73.9474 H         1 UNK         0.1245 
    108 H108      -78.7380   28.4363  -74.3807 H         1 UNK         0.0781 
    109 H109      -78.3507   28.6207  -76.0602 H         1 UNK         0.0781 
    110 H110      -79.0597   30.5349  -73.0891 H         1 UNK         0.0836 
    111 H111      -77.7891   31.6999  -72.8163 H         1 UNK         0.0836 
    112 H112      -78.4589   26.1544  -75.1086 H         1 UNK         0.3022 
    113 H113      -76.8424   22.9684  -75.3365 H         1 UNK         0.0747 
    114 H114      -78.5180   22.1621  -73.8288 H         1 UNK         0.0793 
    115 H115      -77.5502   23.2813  -72.8812 H         1 UNK         0.0793 
    116 H116      -79.1253   23.7754  -73.4990 H         1 UNK         0.0793 
    117 H117      -79.5436   23.6212  -75.8229 H         1 UNK         0.3047 
    118 H118      -79.2514   24.8249  -79.1388 H         1 UNK         0.0822 
    119 H119      -80.1948   22.0910  -78.1281 H         1 UNK         0.0807 
    120 H120      -79.0440   22.3825  -79.4206 H         1 UNK         0.0807 
    121 H121      -80.7184   22.8744  -79.6181 H         1 UNK         0.0807 
    122 H122      -80.9291   25.7632  -78.1014 H         1 UNK         0.2946 
    123 H123      -82.4706   26.3684  -76.7632 H         1 UNK         0.1144 
    124 H124      -84.1413   24.6590  -77.5304 H         1 UNK         0.0793 
    125 H125      -84.1830   23.9682  -75.9139 H         1 UNK         0.0793 
    126 H126      -84.7608   25.6118  -76.1920 H         1 UNK         0.0793 
    127 H127      -83.2375   25.5560  -74.1985 H         1 UNK         0.2896 
@<TRIPOS>BOND
     1    1    2 1    
     2    1   67 1    
     3    1   68 1    
     4    1   69 1    
     5    2    3 2    
     6    2    4 am   BACKBONE|DICT|INTERRES
     7    4    5 1    
     8    4   70 1    
     9    5    6 1    
    10    5   65 1    
    11    5   71 1    
    12    6    7 1    
    13    6   72 1    
    14    6   73 1    
    15    7    8 1    
    16    8    9 1    
    17    8   74 1    
    18    8   75 1    
    19    9   10 ar   
    20    9   14 ar   
    21   10   11 ar   
    22   10   76 1    
    23   11   12 ar   
    24   11   48 1    
    25   12   13 ar   
    26   12   77 1    
    27   13   14 ar   
    28   13   15 1    
    29   14   78 1    
    30   15   16 1    
    31   15   79 1    
    32   15   80 1    
    33   16   17 1    
    34   17   18 1    
    35   17   81 1    
    36   17   82 1    
    37   18   19 1    
    38   18   22 1    
    39   18   83 1    
    40   19   20 am   BACKBONE|DICT|INTERRES
    41   19   21 2    
    42   20   84 1    
    43   20   85 1    
    44   22   23 am   BACKBONE|DICT|INTERRES
    45   22   86 1    
    46   23   24 2    
    47   23   25 1    
    48   25   26 1    
    49   25   27 1    
    50   25   87 1    
    51   26   88 1    
    52   26   89 1    
    53   26   90 1    
    54   27   28 am   BACKBONE|DICT|INTERRES
    55   27   91 1    
    56   28   29 2    
    57   28   30 1    
    58   30   31 1    
    59   30   32 1    
    60   30   92 1    
    61   31   93 1    
    62   31   94 1    
    63   31   95 1    
    64   32   33 am   BACKBONE|DICT|INTERRES
    65   32   96 1    
    66   33   34 2    
    67   33   35 1    
    68   35   36 1    
    69   35   37 1    
    70   35   97 1    
    71   36   98 1    
    72   36   99 1    
    73   36  100 1    
    74   37   38 am   BACKBONE|DICT|INTERRES
    75   37  101 1    
    76   38   39 2    
    77   38   40 1    
    78   40   41 1    
    79   40   42 1    
    80   40  102 1    
    81   41  103 1    
    82   41  104 1    
    83   41  105 1    
    84   42   43 am   BACKBONE|DICT|INTERRES
    85   42  106 1    
    86   43   44 2    
    87   43   45 1    
    88   45   46 1    
    89   45   49 1    
    90   45  107 1    
    91   46   47 1    
    92   46  108 1    
    93   46  109 1    
    94   47   48 1    
    95   48  110 1    
    96   48  111 1    
    97   49   50 am   BACKBONE|DICT|INTERRES
    98   49  112 1    
    99   50   51 2    
   100   50   52 1    
   101   52   53 1    
   102   52   54 1    
   103   52  113 1    
   104   53  114 1    
   105   53  115 1    
   106   53  116 1    
   107   54   55 am   BACKBONE|DICT|INTERRES
   108   54  117 1    
   109   55   56 2    
   110   55   57 1    
   111   57   58 1    
   112   57   59 1    
   113   57  118 1    
   114   58  119 1    
   115   58  120 1    
   116   58  121 1    
   117   59   60 am   BACKBONE|DICT|INTERRES
   118   59  122 1    
   119   60   61 2    
   120   60   62 1    
   121   62   63 1    
   122   62   64 1    
   123   62  123 1    
   124   63  124 1    
   125   63  125 1    
   126   63  126 1    
   127   64   65 am   BACKBONE|DICT|INTERRES
   128   64  127 1    
   129   65   66 2    
@<TRIPOS>SUBSTRUCTURE
     1 UNK         1 GROUP             0       ****    0 ROOT    
