@<TRIPOS>MOLECULE
3R135
127   129    1
SMALL
USER_CHARGES


@<TRIPOS>ATOM
      1 CA        -81.6977   25.8541  -71.6328 C.3       0 UNK        -0.1998 
      2 C         -82.1899   26.5410  -72.8974 C.2       0 UNK         0.4909 
      3 O         -83.3632   26.4124  -73.2475 O.2       0 UNK        -0.5240 
      4 N         -81.2967   27.2587  -73.5907 N.am      1 UNK        -0.4739 
      5 CA        -81.5785   27.9436  -74.8637 C.3       1 UNK         0.0864 
      6 C6        -80.7570   29.2489  -75.0141 C.3       11 UNK        -0.0881 
      7 S7        -81.2368   30.4727  -73.7442 S.3       11 UNK        -0.2682 
      8 C8        -79.6891   31.4058  -73.4698 C.3       11 UNK         0.0289 
      9 C9        -78.5292   30.6339  -72.8347 C.ar      11 UNK        -0.0687 
     10 C10       -78.6810   29.3670  -72.2561 C.ar      11 UNK        -0.0823 
     11 C11       -77.5862   28.6921  -71.7114 C.ar      11 UNK        -0.0830 
     12 C12       -76.3383   29.3172  -71.6880 C.ar      11 UNK        -0.1021 
     13 C13       -76.1637   30.5797  -72.2606 C.ar      11 UNK        -0.0753 
     14 C14       -77.2643   31.2304  -72.8277 C.ar      11 UNK        -0.0933 
     15 C15       -74.7921   31.2430  -72.2758 C.3       11 UNK         0.0166 
     16 S16       -73.5681   30.2693  -73.2151 S.3       11 UNK        -0.2615 
     17 C17       -72.8257   29.2288  -71.9062 C.3       11 UNK        -0.0865 
     18 CA        -71.3045   28.9921  -72.1330 C.3       10 UNK         0.0862 
     19 C         -70.5954   28.3653  -70.8918 C.2       10 UNK         0.5551 
     20 N         -69.5608   27.5518  -71.0654 N.am      10 UNK        -0.7319 
     21 O         -70.9624   28.6450  -69.7529 O.2       10 UNK        -0.5018 
     22 N         -71.0296   28.3133  -73.4130 N.am      10 UNK        -0.4509 
     23 C         -71.4102   27.0732  -73.7450 C.2       10 UNK         0.4899 
     24 O         -72.0190   26.3089  -72.9949 O.2       10 UNK        -0.4839 
     25 CA        -71.0894   26.6464  -75.1835 C.3       9 UNK         0.0222 
     26 CB        -71.2233   25.1287  -75.3998 C.3       9 UNK        -0.1966 
     27 N         -71.9956   27.3392  -76.0961 N.am      9 UNK        -0.4218 
     28 C         -71.7506   28.5271  -76.6632 C.2       9 UNK         0.5020 
     29 O         -70.7082   29.1617  -76.4933 O.2       9 UNK        -0.5274 
     30 CA        -72.8486   29.1129  -77.5572 C.3       8 UNK         0.0270 
     31 CB        -72.9502   28.3441  -78.8863 C.3       8 UNK        -0.1976 
     32 N         -74.1482   29.1010  -76.8846 N.am      8 UNK        -0.4313 
     33 C         -74.9991   30.1358  -76.8461 C.2       8 UNK         0.5041 
     34 O         -74.7486   31.2404  -77.3335 O.2       8 UNK        -0.5577 
     35 CA        -76.3643   29.9039  -76.1598 C.3       7 UNK         0.0284 
     36 CB        -77.4609   30.8486  -76.6958 C.3       7 UNK        -0.1958 
     37 N         -76.8156   28.5067  -76.1980 N.am      7 UNK        -0.4454 
     38 C         -77.0331   27.7520  -77.2867 C.2       7 UNK         0.5089 
     39 O         -77.0150   28.1885  -78.4380 O.2       7 UNK        -0.5125 
     40 CA        -77.2869   26.2465  -77.0509 C.3       6 UNK         0.0408 
     41 CB        -76.7522   25.3785  -78.2074 C.3       6 UNK        -0.1791 
     42 N         -76.8011   25.7149  -75.7677 N.am      6 UNK        -0.4762 
     43 C         -75.5562   25.8012  -75.2712 C.2       6 UNK         0.5007 
     44 O         -74.6362   26.4027  -75.8306 O.2       6 UNK        -0.5032 
     45 CA        -75.3021   25.1193  -73.9169 C.3       5 UNK         0.0783 
     46 C46       -75.7984   25.9677  -72.7181 C.3       11 UNK        -0.0857 
     47 S47       -77.6122   26.0378  -72.4926 S.3       11 UNK        -0.2512 
     48 C48       -77.7518   27.2818  -71.1653 C.3       11 UNK         0.0225 
     49 N         -75.8018   23.7413  -73.9063 N.am      5 UNK        -0.4615 
     50 C         -75.0976   22.7025  -74.3777 C.2       4 UNK         0.5053 
     51 O         -73.9781   22.8034  -74.8787 O.2       4 UNK        -0.5105 
     52 CA        -75.7230   21.3054  -74.2490 C.3       4 UNK         0.0263 
     53 CB        -75.5344   20.7583  -72.8243 C.3       4 UNK        -0.1981 
     54 N         -77.1394   21.2541  -74.6078 N.am      4 UNK        -0.4224 
     55 C         -77.6294   21.4436  -75.8405 C.2       3 UNK         0.4895 
     56 O         -76.9400   21.7389  -76.8179 O.2       3 UNK        -0.5091 
     57 CA        -79.1431   21.2272  -76.0367 C.3       3 UNK         0.0250 
     58 CB        -79.8889   20.7388  -74.7715 C.3       3 UNK        -0.1996 
     59 N         -79.8119   22.4073  -76.5927 N.am      3 UNK        -0.4254 
     60 C         -79.8475   23.6333  -76.0538 C.2       2 UNK         0.5004 
     61 O         -79.2207   23.9617  -75.0395 O.2       2 UNK        -0.5226 
     62 CA        -80.7602   24.6610  -76.7452 C.3       2 UNK         0.0269 
     63 CB        -82.1401   24.0725  -77.1145 C.3       2 UNK        -0.1926 
     64 N         -80.9282   25.7735  -75.8181 N.am      2 UNK        -0.4687 
     65 C         -81.3941   26.9998  -76.0743 C.2       1 UNK         0.5165 
     66 O         -81.6923   27.3890  -77.2040 O.2       1 UNK        -0.5079 
     67 H67       -82.0498   24.8232  -71.6036 H         1 UNK         0.0900 
     68 H68       -82.0787   26.3702  -70.7521 H         1 UNK         0.0900 
     69 H69       -80.6101   25.8357  -71.5773 H         1 UNK         0.0900 
     70 H70       -80.3413   27.3079  -73.2687 H         1 UNK         0.2959 
     71 H71       -82.6341   28.2253  -74.8805 H         1 UNK         0.1079 
     72 H72       -79.6886   29.0369  -74.9520 H         1 UNK         0.0837 
     73 H73       -80.9241   29.7064  -75.9913 H         1 UNK         0.0837 
     74 H74       -79.3698   31.8293  -74.4225 H         1 UNK         0.0685 
     75 H75       -79.9221   32.2535  -72.8242 H         1 UNK         0.0685 
     76 H76       -79.6488   28.8928  -72.2293 H         1 UNK         0.1434 
     77 H77       -75.4975   28.8081  -71.2419 H         1 UNK         0.1329 
     78 H78       -77.1363   32.2083  -73.2719 H         1 UNK         0.1335 
     79 H79       -74.8561   32.2293  -72.7380 H         1 UNK         0.0680 
     80 H80       -74.4537   31.4148  -71.2536 H         1 UNK         0.0680 
     81 H81       -73.3564   28.2778  -71.8600 H         1 UNK         0.1032 
     82 H82       -72.9905   29.7113  -70.9418 H         1 UNK         0.1032 
     83 H83       -70.8421   29.9751  -72.2292 H         1 UNK         0.0461 
     84 H84       -69.0992   27.1587  -70.2604 H         1 UNK         0.3453 
     85 H85       -69.2435   27.3231  -71.9936 H         1 UNK         0.3453 
     86 H86       -70.5615   28.8709  -74.1154 H         1 UNK         0.2984 
     87 H87       -70.0539   26.9204  -75.3964 H         1 UNK         0.0554 
     88 H88       -70.9227   24.8451  -76.4083 H         1 UNK         0.0847 
     89 H89       -72.2473   24.7873  -75.2514 H         1 UNK         0.0847 
     90 H90       -70.5904   24.5759  -74.7045 H         1 UNK         0.0847 
     91 H91       -72.9127   26.9134  -76.2096 H         1 UNK         0.3141 
     92 H92       -72.5525   30.1395  -77.7832 H         1 UNK         0.0743 
     93 H93       -71.9877   28.3182  -79.3990 H         1 UNK         0.0784 
     94 H94       -73.2713   27.3125  -78.7354 H         1 UNK         0.0784 
     95 H95       -73.6646   28.8180  -79.5598 H         1 UNK         0.0784 
     96 H96       -74.4274   28.2279  -76.4461 H         1 UNK         0.3213 
     97 H97       -76.2057   30.1371  -75.1081 H         1 UNK         0.0855 
     98 H98       -77.2161   31.8900  -76.4842 H         1 UNK         0.0814 
     99 H99       -78.4254   30.6430  -76.2366 H         1 UNK         0.0814 
    100 H100      -77.5804   30.7556  -77.7756 H         1 UNK         0.0814 
    101 H101      -76.8571   28.0385  -75.3036 H         1 UNK         0.3105 
    102 H102      -78.3687   26.1443  -77.0281 H         1 UNK         0.0547 
    103 H103      -77.2062   25.6605  -79.1581 H         1 UNK         0.0837 
    104 H104      -75.6721   25.4801  -78.3184 H         1 UNK         0.0837 
    105 H105      -76.9740   24.3235  -78.0458 H         1 UNK         0.0837 
    106 H106      -77.4888   25.1984  -75.2270 H         1 UNK         0.3020 
    107 H107      -74.2155   25.0776  -73.8127 H         1 UNK         0.1245 
    108 H108      -75.4064   26.9815  -72.8051 H         1 UNK         0.0781 
    109 H109      -75.3683   25.5676  -71.7986 H         1 UNK         0.0781 
    110 H110      -77.0132   27.0778  -70.3883 H         1 UNK         0.0836 
    111 H111      -78.7266   27.1855  -70.6857 H         1 UNK         0.0836 
    112 H112      -76.7304   23.5934  -73.5366 H         1 UNK         0.3022 
    113 H113      -75.1876   20.6450  -74.9348 H         1 UNK         0.0747 
    114 H114      -75.8788   19.7269  -72.7459 H         1 UNK         0.0793 
    115 H115      -74.4812   20.7681  -72.5394 H         1 UNK         0.0793 
    116 H116      -76.0765   21.3511  -72.0863 H         1 UNK         0.0793 
    117 H117      -77.7888   21.0284  -73.8686 H         1 UNK         0.3047 
    118 H118      -79.2334   20.4423  -76.7894 H         1 UNK         0.0822 
    119 H119      -80.9394   20.5466  -74.9907 H         1 UNK         0.0807 
    120 H120      -79.8549   21.4697  -73.9623 H         1 UNK         0.0807 
    121 H121      -79.4710   19.8026  -74.3986 H         1 UNK         0.0807 
    122 H122      -80.3228   22.2495  -77.4498 H         1 UNK         0.2946 
    123 H123      -80.2631   25.0127  -77.6509 H         1 UNK         0.1144 
    124 H124      -82.8011   24.8325  -77.5312 H         1 UNK         0.0793 
    125 H125      -82.6384   23.6426  -76.2445 H         1 UNK         0.0793 
    126 H126      -82.0554   23.2890  -77.8679 H         1 UNK         0.0793 
    127 H127      -80.6399   25.5531  -74.8725 H         1 UNK         0.2896 
@<TRIPOS>BOND
     1    1    2 1    
     2    1   67 1    
     3    1   68 1    
     4    1   69 1    
     5    2    3 2    
     6    2    4 am   BACKBONE|DICT|INTERRES
     7    4    5 1    
     8    4   70 1    
     9    5    6 1    
    10    5   65 1    
    11    5   71 1    
    12    6    7 1    
    13    6   72 1    
    14    6   73 1    
    15    7    8 1    
    16    8    9 1    
    17    8   74 1    
    18    8   75 1    
    19    9   10 ar   
    20    9   14 ar   
    21   10   11 ar   
    22   10   76 1    
    23   11   12 ar   
    24   11   48 1    
    25   12   13 ar   
    26   12   77 1    
    27   13   14 ar   
    28   13   15 1    
    29   14   78 1    
    30   15   16 1    
    31   15   79 1    
    32   15   80 1    
    33   16   17 1    
    34   17   18 1    
    35   17   81 1    
    36   17   82 1    
    37   18   19 1    
    38   18   22 1    
    39   18   83 1    
    40   19   20 am   BACKBONE|DICT|INTERRES
    41   19   21 2    
    42   20   84 1    
    43   20   85 1    
    44   22   23 am   BACKBONE|DICT|INTERRES
    45   22   86 1    
    46   23   24 2    
    47   23   25 1    
    48   25   26 1    
    49   25   27 1    
    50   25   87 1    
    51   26   88 1    
    52   26   89 1    
    53   26   90 1    
    54   27   28 am   BACKBONE|DICT|INTERRES
    55   27   91 1    
    56   28   29 2    
    57   28   30 1    
    58   30   31 1    
    59   30   32 1    
    60   30   92 1    
    61   31   93 1    
    62   31   94 1    
    63   31   95 1    
    64   32   33 am   BACKBONE|DICT|INTERRES
    65   32   96 1    
    66   33   34 2    
    67   33   35 1    
    68   35   36 1    
    69   35   37 1    
    70   35   97 1    
    71   36   98 1    
    72   36   99 1    
    73   36  100 1    
    74   37   38 am   BACKBONE|DICT|INTERRES
    75   37  101 1    
    76   38   39 2    
    77   38   40 1    
    78   40   41 1    
    79   40   42 1    
    80   40  102 1    
    81   41  103 1    
    82   41  104 1    
    83   41  105 1    
    84   42   43 am   BACKBONE|DICT|INTERRES
    85   42  106 1    
    86   43   44 2    
    87   43   45 1    
    88   45   46 1    
    89   45   49 1    
    90   45  107 1    
    91   46   47 1    
    92   46  108 1    
    93   46  109 1    
    94   47   48 1    
    95   48  110 1    
    96   48  111 1    
    97   49   50 am   BACKBONE|DICT|INTERRES
    98   49  112 1    
    99   50   51 2    
   100   50   52 1    
   101   52   53 1    
   102   52   54 1    
   103   52  113 1    
   104   53  114 1    
   105   53  115 1    
   106   53  116 1    
   107   54   55 am   BACKBONE|DICT|INTERRES
   108   54  117 1    
   109   55   56 2    
   110   55   57 1    
   111   57   58 1    
   112   57   59 1    
   113   57  118 1    
   114   58  119 1    
   115   58  120 1    
   116   58  121 1    
   117   59   60 am   BACKBONE|DICT|INTERRES
   118   59  122 1    
   119   60   61 2    
   120   60   62 1    
   121   62   63 1    
   122   62   64 1    
   123   62  123 1    
   124   63  124 1    
   125   63  125 1    
   126   63  126 1    
   127   64   65 am   BACKBONE|DICT|INTERRES
   128   64  127 1    
   129   65   66 2    
@<TRIPOS>SUBSTRUCTURE
     1 UNK         1 GROUP             0       ****    0 ROOT    
