@<TRIPOS>MOLECULE
3R135
127   129    1
SMALL
USER_CHARGES


@<TRIPOS>ATOM
      1 CA        -82.8467   27.5523  -70.3019 C.3       0 UNK        -0.1998 
      2 C         -83.3300   27.3828  -71.7344 C.2       0 UNK         0.4909 
      3 O         -84.3966   26.8105  -71.9593 O.2       0 UNK        -0.5240 
      4 N         -82.5506   27.8756  -72.7056 N.am      1 UNK        -0.4739 
      5 CA        -82.8343   27.7799  -74.1442 C.3       1 UNK         0.0864 
      6 C6        -82.0752   28.8674  -74.9509 C.3       11 UNK        -0.0881 
      7 S7        -80.2559   28.7595  -74.8177 S.3       11 UNK        -0.2682 
      8 C8        -79.8976   30.0399  -73.5765 C.3       11 UNK         0.0289 
      9 C9        -78.5591   29.7745  -72.9068 C.ar      11 UNK        -0.0687 
     10 C10       -78.4234   28.6875  -72.0399 C.ar      11 UNK        -0.0823 
     11 C11       -77.1978   28.4142  -71.4307 C.ar      11 UNK        -0.0830 
     12 C12       -76.1034   29.2461  -71.6846 C.ar      11 UNK        -0.1021 
     13 C13       -76.2282   30.3567  -72.5305 C.ar      11 UNK        -0.0753 
     14 C14       -77.4604   30.6054  -73.1461 C.ar      11 UNK        -0.0933 
     15 C15       -75.0500   31.2826  -72.8321 C.3       11 UNK         0.0166 
     16 S16       -73.8366   31.4378  -71.4736 S.3       11 UNK        -0.2615 
     17 C17       -72.5758   32.5119  -72.2448 C.3       11 UNK        -0.0865 
     18 CA        -71.2949   31.7968  -72.7731 C.3       10 UNK         0.0862 
     19 C         -70.3583   31.2273  -71.6615 C.2       10 UNK         0.5551 
     20 N         -69.5795   30.1858  -71.9236 N.am      10 UNK        -0.7319 
     21 O         -70.2916   31.7718  -70.5618 O.2       10 UNK        -0.5018 
     22 N         -71.5553   30.9547  -73.9578 N.am      10 UNK        -0.4509 
     23 C         -71.9932   29.6881  -74.0078 C.2       10 UNK         0.4899 
     24 O         -72.1587   28.9671  -73.0228 O.2       10 UNK        -0.4839 
     25 CA        -72.3703   29.1659  -75.4079 C.3       9 UNK         0.0222 
     26 CB        -71.5385   29.7783  -76.5591 C.3       9 UNK        -0.1966 
     27 N         -72.3758   27.7046  -75.4828 N.am      9 UNK        -0.4218 
     28 C         -71.3305   26.8685  -75.4157 C.2       9 UNK         0.5020 
     29 O         -70.1617   27.2240  -75.2521 O.2       9 UNK        -0.5274 
     30 CA        -71.6421   25.3704  -75.5986 C.3       8 UNK         0.0270 
     31 CB        -71.9617   24.7142  -74.2458 C.3       8 UNK        -0.1976 
     32 N         -72.7404   25.1249  -76.5422 N.am      8 UNK        -0.4313 
     33 C         -72.6875   25.3986  -77.8552 C.2       8 UNK         0.5041 
     34 O         -71.6737   25.7963  -78.4312 O.2       8 UNK        -0.5577 
     35 CA        -73.9817   25.2152  -78.6665 C.3       7 UNK         0.0284 
     36 CB        -74.1627   23.7458  -79.0800 C.3       7 UNK        -0.1958 
     37 N         -75.1737   25.6850  -77.9554 N.am      7 UNK        -0.4454 
     38 C         -75.4356   26.9694  -77.6675 C.2       7 UNK         0.5089 
     39 O         -74.7310   27.9114  -78.0297 O.2       7 UNK        -0.5125 
     40 CA        -76.6780   27.2509  -76.8007 C.3       6 UNK         0.0408 
     41 CB        -77.9479   27.2678  -77.6653 C.3       6 UNK        -0.1791 
     42 N         -76.8356   26.2904  -75.7049 N.am      6 UNK        -0.4762 
     43 C         -75.9410   26.1061  -74.7216 C.2       6 UNK         0.5007 
     44 O         -74.9170   26.7767  -74.6023 O.2       6 UNK        -0.5032 
     45 CA        -76.1768   24.9147  -73.7732 C.3       5 UNK         0.0783 
     46 C46       -77.0582   25.2763  -72.5518 C.3       11 UNK        -0.0857 
     47 S47       -76.0383   25.8979  -71.1716 S.3       11 UNK        -0.2512 
     48 C48       -77.0645   27.2322  -70.4820 C.3       11 UNK         0.0225 
     49 N         -76.6842   23.7511  -74.5032 N.am      5 UNK        -0.4615 
     50 C         -75.9308   22.9967  -75.3149 C.2       4 UNK         0.5053 
     51 O         -74.7333   23.1981  -75.5156 O.2       4 UNK        -0.5105 
     52 CA        -76.6375   21.8461  -76.0500 C.3       4 UNK         0.0263 
     53 CB        -76.7384   20.6074  -75.1460 C.3       4 UNK        -0.1981 
     54 N         -77.9710   22.2169  -76.5289 N.am      4 UNK        -0.4224 
     55 C         -78.1997   23.1342  -77.4792 C.2       3 UNK         0.4895 
     56 O         -77.3089   23.7312  -78.0817 O.2       3 UNK        -0.5091 
     57 CA        -79.6683   23.4748  -77.7814 C.3       3 UNK         0.0250 
     58 CB        -80.2392   22.5095  -78.8323 C.3       3 UNK        -0.1996 
     59 N         -80.5383   23.4874  -76.5993 N.am      3 UNK        -0.4254 
     60 C         -80.3660   24.2753  -75.5288 C.2       2 UNK         0.5004 
     61 O         -79.3966   25.0203  -75.3689 O.2       2 UNK        -0.5226 
     62 CA        -81.4307   24.1870  -74.4265 C.3       2 UNK         0.0269 
     63 CB        -80.8867   23.4115  -73.2156 C.3       2 UNK        -0.1926 
     64 N         -81.8356   25.5247  -73.9970 N.am      2 UNK        -0.4687 
     65 C         -82.5983   26.3619  -74.7163 C.2       1 UNK         0.5165 
     66 O         -83.1174   26.0515  -75.7902 O.2       1 UNK        -0.5079 
     67 H67       -81.8983   28.0869  -70.2505 H         1 UNK         0.0900 
     68 H68       -82.7126   26.5776  -69.8336 H         1 UNK         0.0900 
     69 H69       -83.5814   28.1105  -69.7222 H         1 UNK         0.0900 
     70 H70       -81.6851   28.3354  -72.4674 H         1 UNK         0.2959 
     71 H71       -83.9012   27.9744  -74.2773 H         1 UNK         0.1079 
     72 H72       -82.3406   28.8051  -76.0081 H         1 UNK         0.0837 
     73 H73       -82.4016   29.8587  -74.6324 H         1 UNK         0.0837 
     74 H74       -79.9098   31.0186  -74.0586 H         1 UNK         0.0685 
     75 H75       -80.6778   30.0606  -72.8151 H         1 UNK         0.0685 
     76 H76       -79.2721   28.0449  -71.8521 H         1 UNK         0.1434 
     77 H77       -75.1531   29.0189  -71.2215 H         1 UNK         0.1329 
     78 H78       -77.5643   31.4471  -73.8173 H         1 UNK         0.1335 
     79 H79       -74.5512   30.9174  -73.7287 H         1 UNK         0.0680 
     80 H80       -75.4198   32.2817  -73.0683 H         1 UNK         0.0680 
     81 H81       -72.2979   33.2705  -71.5108 H         1 UNK         0.1032 
     82 H82       -73.0378   33.0721  -73.0588 H         1 UNK         0.1032 
     83 H83       -70.6836   32.6000  -73.1864 H         1 UNK         0.0461 
     84 H84       -68.9636   29.8339  -71.2080 H         1 UNK         0.3453 
     85 H85       -69.6502   29.7132  -72.8109 H         1 UNK         0.3453 
     86 H86       -71.4260   31.4272  -74.8404 H         1 UNK         0.2984 
     87 H87       -73.4092   29.4590  -75.5657 H         1 UNK         0.0554 
     88 H88       -71.7890   29.3110  -77.5121 H         1 UNK         0.0847 
     89 H89       -70.4669   29.6516  -76.4006 H         1 UNK         0.0847 
     90 H90       -71.7341   30.8447  -76.6737 H         1 UNK         0.0847 
     91 H91       -73.3029   27.2861  -75.4692 H         1 UNK         0.3141 
     92 H92       -70.7467   24.8939  -76.0032 H         1 UNK         0.0743 
     93 H93       -72.8368   25.1636  -73.7763 H         1 UNK         0.0784 
     94 H94       -72.1489   23.6457  -74.3549 H         1 UNK         0.0784 
     95 H95       -71.1276   24.8293  -73.5524 H         1 UNK         0.0784 
     96 H96       -73.5893   24.7153  -76.1637 H         1 UNK         0.3213 
     97 H97       -73.8847   25.8106  -79.5769 H         1 UNK         0.0855 
     98 H98       -74.2989   23.0949  -78.2162 H         1 UNK         0.0814 
     99 H99       -73.2912   23.3843  -79.6273 H         1 UNK         0.0814 
    100 H100      -75.0282   23.6217  -79.7311 H         1 UNK         0.0814 
    101 H101      -75.8594   24.9804  -77.6971 H         1 UNK         0.3105 
    102 H102      -76.5596   28.2390  -76.3510 H         1 UNK         0.0547 
    103 H103      -77.8931   28.0539  -78.4191 H         1 UNK         0.0837 
    104 H104      -78.0925   26.3243  -78.1903 H         1 UNK         0.0837 
    105 H105      -78.8379   27.4536  -77.0653 H         1 UNK         0.0837 
    106 H106      -77.6869   25.7315  -75.6994 H         1 UNK         0.3020 
    107 H107      -75.1923   24.6244  -73.3983 H         1 UNK         0.1245 
    108 H108      -77.5728   24.3898  -72.1783 H         1 UNK         0.0781 
    109 H109      -77.8445   25.9847  -72.8184 H         1 UNK         0.0781 
    110 H110      -76.6128   27.5750  -69.5500 H         1 UNK         0.0836 
    111 H111      -78.0429   26.8297  -70.2143 H         1 UNK         0.0836 
    112 H112      -77.6774   23.5785  -74.4507 H         1 UNK         0.3022 
    113 H113      -76.0285   21.5856  -76.9184 H         1 UNK         0.0747 
    114 H114      -77.1627   19.7585  -75.6826 H         1 UNK         0.0793 
    115 H115      -75.7524   20.3037  -74.7911 H         1 UNK         0.0793 
    116 H116      -77.3577   20.7939  -74.2677 H         1 UNK         0.0793 
    117 H117      -78.7623   21.7700  -76.0896 H         1 UNK         0.3047 
    118 H118      -79.6858   24.4815  -78.2033 H         1 UNK         0.0822 
    119 H119      -81.2423   22.8053  -79.1403 H         1 UNK         0.0807 
    120 H120      -80.2897   21.4860  -78.4585 H         1 UNK         0.0807 
    121 H121      -79.6183   22.4983  -79.7294 H         1 UNK         0.0807 
    122 H122      -81.3565   22.8965  -76.6408 H         1 UNK         0.2946 
    123 H123      -82.3101   23.6656  -74.8117 H         1 UNK         0.1144 
    124 H124      -81.6424   23.3152  -72.4356 H         1 UNK         0.0793 
    125 H125      -80.0161   23.9019  -72.7786 H         1 UNK         0.0793 
    126 H126      -80.5857   22.4021  -73.4993 H         1 UNK         0.0793 
    127 H127      -81.4221   25.8760  -73.1469 H         1 UNK         0.2896 
@<TRIPOS>BOND
     1    1    2 1    
     2    1   67 1    
     3    1   68 1    
     4    1   69 1    
     5    2    3 2    
     6    2    4 am   BACKBONE|DICT|INTERRES
     7    4    5 1    
     8    4   70 1    
     9    5    6 1    
    10    5   65 1    
    11    5   71 1    
    12    6    7 1    
    13    6   72 1    
    14    6   73 1    
    15    7    8 1    
    16    8    9 1    
    17    8   74 1    
    18    8   75 1    
    19    9   10 ar   
    20    9   14 ar   
    21   10   11 ar   
    22   10   76 1    
    23   11   12 ar   
    24   11   48 1    
    25   12   13 ar   
    26   12   77 1    
    27   13   14 ar   
    28   13   15 1    
    29   14   78 1    
    30   15   16 1    
    31   15   79 1    
    32   15   80 1    
    33   16   17 1    
    34   17   18 1    
    35   17   81 1    
    36   17   82 1    
    37   18   19 1    
    38   18   22 1    
    39   18   83 1    
    40   19   20 am   BACKBONE|DICT|INTERRES
    41   19   21 2    
    42   20   84 1    
    43   20   85 1    
    44   22   23 am   BACKBONE|DICT|INTERRES
    45   22   86 1    
    46   23   24 2    
    47   23   25 1    
    48   25   26 1    
    49   25   27 1    
    50   25   87 1    
    51   26   88 1    
    52   26   89 1    
    53   26   90 1    
    54   27   28 am   BACKBONE|DICT|INTERRES
    55   27   91 1    
    56   28   29 2    
    57   28   30 1    
    58   30   31 1    
    59   30   32 1    
    60   30   92 1    
    61   31   93 1    
    62   31   94 1    
    63   31   95 1    
    64   32   33 am   BACKBONE|DICT|INTERRES
    65   32   96 1    
    66   33   34 2    
    67   33   35 1    
    68   35   36 1    
    69   35   37 1    
    70   35   97 1    
    71   36   98 1    
    72   36   99 1    
    73   36  100 1    
    74   37   38 am   BACKBONE|DICT|INTERRES
    75   37  101 1    
    76   38   39 2    
    77   38   40 1    
    78   40   41 1    
    79   40   42 1    
    80   40  102 1    
    81   41  103 1    
    82   41  104 1    
    83   41  105 1    
    84   42   43 am   BACKBONE|DICT|INTERRES
    85   42  106 1    
    86   43   44 2    
    87   43   45 1    
    88   45   46 1    
    89   45   49 1    
    90   45  107 1    
    91   46   47 1    
    92   46  108 1    
    93   46  109 1    
    94   47   48 1    
    95   48  110 1    
    96   48  111 1    
    97   49   50 am   BACKBONE|DICT|INTERRES
    98   49  112 1    
    99   50   51 2    
   100   50   52 1    
   101   52   53 1    
   102   52   54 1    
   103   52  113 1    
   104   53  114 1    
   105   53  115 1    
   106   53  116 1    
   107   54   55 am   BACKBONE|DICT|INTERRES
   108   54  117 1    
   109   55   56 2    
   110   55   57 1    
   111   57   58 1    
   112   57   59 1    
   113   57  118 1    
   114   58  119 1    
   115   58  120 1    
   116   58  121 1    
   117   59   60 am   BACKBONE|DICT|INTERRES
   118   59  122 1    
   119   60   61 2    
   120   60   62 1    
   121   62   63 1    
   122   62   64 1    
   123   62  123 1    
   124   63  124 1    
   125   63  125 1    
   126   63  126 1    
   127   64   65 am   BACKBONE|DICT|INTERRES
   128   64  127 1    
   129   65   66 2    
@<TRIPOS>SUBSTRUCTURE
     1 UNK         1 GROUP             0       ****    0 ROOT    
