@<TRIPOS>MOLECULE
3R135
127   129    1
SMALL
USER_CHARGES


@<TRIPOS>ATOM
      1 CA        -81.7702   23.6089  -68.2488 C.3       0 UNK        -0.1998 
      2 C         -81.8329   24.3381  -69.5819 C.2       0 UNK         0.4909 
      3 O         -82.9252   24.6186  -70.0784 O.2       0 UNK        -0.5240 
      4 N         -80.6711   24.6449  -70.1725 N.am      1 UNK        -0.4739 
      5 CA        -80.5288   25.3420  -71.4565 C.3       1 UNK         0.0864 
      6 C6        -79.1642   26.0704  -71.5756 C.3       11 UNK        -0.0881 
      7 S7        -78.8859   27.2763  -70.2340 S.3       11 UNK        -0.2682 
      8 C8        -79.5352   28.8170  -70.9625 C.3       11 UNK         0.0289 
      9 C9        -78.7285   29.2972  -72.1633 C.ar      11 UNK        -0.0687 
     10 C10       -79.3600   29.5276  -73.3895 C.ar      11 UNK        -0.0823 
     11 C11       -78.6300   29.9871  -74.4904 C.ar      11 UNK        -0.0830 
     12 C12       -77.2554   30.2088  -74.3621 C.ar      11 UNK        -0.1021 
     13 C13       -76.6117   29.9676  -73.1459 C.ar      11 UNK        -0.0753 
     14 C14       -77.3544   29.5270  -72.0472 C.ar      11 UNK        -0.0933 
     15 C15       -75.1085   30.1402  -73.0246 C.3       11 UNK         0.0166 
     16 S16       -74.6361   31.8692  -72.7155 S.3       11 UNK        -0.2615 
     17 C17       -73.0473   31.6372  -71.8417 C.3       11 UNK        -0.0865 
     18 CA        -71.8055   31.5762  -72.7711 C.3       10 UNK         0.0862 
     19 C         -70.5117   31.4288  -71.9162 C.2       10 UNK         0.5551 
     20 N         -69.8780   30.2612  -71.8711 N.am      10 UNK        -0.7319 
     21 O         -70.0821   32.3902  -71.2836 O.2       10 UNK        -0.5018 
     22 N         -71.9467   30.5459  -73.8109 N.am      10 UNK        -0.4509 
     23 C         -71.1620   30.4207  -74.8871 C.2       10 UNK         0.4899 
     24 O         -70.3100   31.2522  -75.2041 O.2       10 UNK        -0.4839 
     25 CA        -71.3545   29.1652  -75.7643 C.3       9 UNK         0.0222 
     26 CB        -70.0038   28.5824  -76.2292 C.3       9 UNK        -0.1966 
     27 N         -72.1869   28.1001  -75.1830 N.am      9 UNK        -0.4218 
     28 C         -71.9786   27.4046  -74.0528 C.2       9 UNK         0.5020 
     29 O         -71.0944   27.6670  -73.2353 O.2       9 UNK        -0.5274 
     30 CA        -72.9159   26.2097  -73.7964 C.3       8 UNK         0.0270 
     31 CB        -74.2618   26.6661  -73.2115 C.3       8 UNK        -0.1976 
     32 N         -73.1566   25.4165  -75.0036 N.am      8 UNK        -0.4313 
     33 C         -72.2256   24.6795  -75.6277 C.2       8 UNK         0.5041 
     34 O         -71.0752   24.5273  -75.2151 O.2       8 UNK        -0.5577 
     35 CA        -72.6450   24.0115  -76.9453 C.3       7 UNK         0.0284 
     36 CB        -73.4232   22.7127  -76.6811 C.3       7 UNK        -0.1958 
     37 N         -73.4472   24.9183  -77.7680 N.am      7 UNK        -0.4454 
     38 C         -72.9326   25.9068  -78.5134 C.2       7 UNK         0.5089 
     39 O         -71.7256   26.1075  -78.6468 O.2       7 UNK        -0.5125 
     40 CA        -73.9272   26.8326  -79.2358 C.3       6 UNK         0.0408 
     41 CB        -74.1551   26.3526  -80.6778 C.3       6 UNK        -0.1791 
     42 N         -75.2195   26.9494  -78.5550 N.am      6 UNK        -0.4762 
     43 C         -75.4131   27.5893  -77.3925 C.2       6 UNK         0.5007 
     44 O         -74.5170   28.1390  -76.7531 O.2       6 UNK        -0.5032 
     45 CA        -76.8451   27.5717  -76.8303 C.3       5 UNK         0.0783 
     46 C46       -77.7022   28.6708  -77.5044 C.3       11 UNK        -0.0857 
     47 S47       -79.4032   28.7510  -76.8444 S.3       11 UNK        -0.2512 
     48 C48       -79.3338   30.2491  -75.8131 C.3       11 UNK         0.0225 
     49 N         -77.4720   26.2517  -76.9320 N.am      5 UNK        -0.4615 
     50 C         -77.0273   25.1163  -76.3811 C.2       4 UNK         0.5053 
     51 O         -75.9387   25.0224  -75.8098 O.2       4 UNK        -0.5105 
     52 CA        -77.9600   23.8929  -76.4876 C.3       4 UNK         0.0263 
     53 CB        -77.5758   22.7750  -75.5010 C.3       4 UNK        -0.1981 
     54 N         -79.3660   24.2552  -76.2699 N.am      4 UNK        -0.4224 
     55 C         -80.2017   24.7281  -77.2085 C.2       3 UNK         0.4895 
     56 O         -79.8461   24.9325  -78.3701 O.2       3 UNK        -0.5091 
     57 CA        -81.6450   25.0900  -76.7910 C.3       3 UNK         0.0250 
     58 CB        -82.6703   24.7963  -77.9071 C.3       3 UNK        -0.1996 
     59 N         -82.0727   24.5041  -75.5138 N.am      3 UNK        -0.4254 
     60 C         -82.1939   23.2031  -75.2059 C.2       2 UNK         0.5004 
     61 O         -82.0555   22.2893  -76.0207 O.2       2 UNK        -0.5226 
     62 CA        -82.4865   22.8717  -73.7252 C.3       2 UNK         0.0269 
     63 CB        -81.9480   21.4815  -73.3252 C.3       2 UNK        -0.1926 
     64 N         -82.0121   23.8824  -72.7630 N.am      2 UNK        -0.4687 
     65 C         -80.7661   24.3633  -72.6267 C.2       1 UNK         0.5165 
     66 O         -79.8355   24.0572  -73.3736 O.2       1 UNK        -0.5079 
     67 H67       -82.2701   24.1944  -67.4778 H         1 UNK         0.0900 
     68 H68       -80.7434   23.4330  -67.9286 H         1 UNK         0.0900 
     69 H69       -82.2723   22.6448  -68.3247 H         1 UNK         0.0900 
     70 H70       -79.8037   24.3843  -69.7253 H         1 UNK         0.2959 
     71 H71       -81.3073   26.1054  -71.5239 H         1 UNK         0.1079 
     72 H72       -79.0800   26.5768  -72.5390 H         1 UNK         0.0837 
     73 H73       -78.3440   25.3505  -71.5472 H         1 UNK         0.0837 
     74 H74       -80.5826   28.6666  -71.2287 H         1 UNK         0.0685 
     75 H75       -79.5218   29.5964  -70.1996 H         1 UNK         0.0685 
     76 H76       -80.4230   29.3544  -73.4892 H         1 UNK         0.1434 
     77 H77       -76.6813   30.5589  -75.2089 H         1 UNK         0.1329 
     78 H78       -76.8611   29.3450  -71.1021 H         1 UNK         0.1335 
     79 H79       -74.6293   29.7945  -73.9414 H         1 UNK         0.0680 
     80 H80       -74.7367   29.5058  -72.2199 H         1 UNK         0.0680 
     81 H81       -73.1022   30.7471  -71.2121 H         1 UNK         0.1032 
     82 H82       -72.9437   32.4739  -71.1477 H         1 UNK         0.1032 
     83 H83       -71.7312   32.5376  -73.2832 H         1 UNK         0.0461 
     84 H84       -69.0412   30.1732  -71.3169 H         1 UNK         0.3453 
     85 H85       -70.2371   29.4600  -72.3768 H         1 UNK         0.3453 
     86 H86       -72.6017   29.8056  -73.6190 H         1 UNK         0.2984 
     87 H87       -71.8901   29.5029  -76.6526 H         1 UNK         0.0554 
     88 H88       -69.4286   29.3168  -76.7944 H         1 UNK         0.0847 
     89 H89       -70.1482   27.7190  -76.8792 H         1 UNK         0.0847 
     90 H90       -69.3894   28.2665  -75.3853 H         1 UNK         0.0847 
     91 H91       -73.0065   27.8658  -75.7415 H         1 UNK         0.3141 
     92 H92       -72.4310   25.5622  -73.0627 H         1 UNK         0.0743 
     93 H93       -74.8127   27.3018  -73.9054 H         1 UNK         0.0784 
     94 H94       -74.8976   25.8127  -72.9738 H         1 UNK         0.0784 
     95 H95       -74.1149   27.2235  -72.2862 H         1 UNK         0.0784 
     96 H96       -74.1031   25.4208  -75.3768 H         1 UNK         0.3213 
     97 H97       -71.7369   23.7517  -77.4944 H         1 UNK         0.0855 
     98 H98       -72.8105   22.0015  -76.1256 H         1 UNK         0.0814 
     99 H99       -73.7185   22.2283  -77.6119 H         1 UNK         0.0814 
    100 H100      -74.3226   22.8911  -76.0930 H         1 UNK         0.0814 
    101 H101      -74.4514   24.8516  -77.6812 H         1 UNK         0.3105 
    102 H102      -73.4771   27.8270  -79.2767 H         1 UNK         0.0547 
    103 H103      -73.2104   26.2832  -81.2191 H         1 UNK         0.0837 
    104 H104      -74.6201   25.3665  -80.7083 H         1 UNK         0.0837 
    105 H105      -74.7919   27.0430  -81.2310 H         1 UNK         0.0837 
    106 H106      -76.0144   26.5135  -79.0011 H         1 UNK         0.3020 
    107 H107      -76.7678   27.7992  -75.7651 H         1 UNK         0.1245 
    108 H108      -77.7779   28.4891  -78.5783 H         1 UNK         0.0781 
    109 H109      -77.2266   29.6479  -77.4030 H         1 UNK         0.0781 
    110 H110      -80.3532   30.5896  -75.6248 H         1 UNK         0.0836 
    111 H111      -78.8455   31.0588  -76.3577 H         1 UNK         0.0836 
    112 H112      -78.3644   26.2214  -77.4087 H         1 UNK         0.3022 
    113 H113      -77.8499   23.4932  -77.4977 H         1 UNK         0.0747 
    114 H114      -76.5876   22.3749  -75.7258 H         1 UNK         0.0793 
    115 H115      -77.5554   23.1356  -74.4717 H         1 UNK         0.0793 
    116 H116      -78.2783   21.9428  -75.5499 H         1 UNK         0.0793 
    117 H117      -79.6992   24.1625  -75.3136 H         1 UNK         0.3047 
    118 H118      -81.6379   26.1697  -76.6332 H         1 UNK         0.0822 
    119 H119      -82.6808   23.7411  -78.1815 H         1 UNK         0.0807 
    120 H120      -82.4397   25.3623  -78.8105 H         1 UNK         0.0807 
    121 H121      -83.6793   25.0746  -77.6030 H         1 UNK         0.0807 
    122 H122      -82.2124   25.1637  -74.7613 H         1 UNK         0.2946 
    123 H123      -83.5738   22.8449  -73.6361 H         1 UNK         0.1144 
    124 H124      -82.1810   21.2498  -72.2859 H         1 UNK         0.0793 
    125 H125      -80.8661   21.4186  -73.4485 H         1 UNK         0.0793 
    126 H126      -82.3921   20.6947  -73.9365 H         1 UNK         0.0793 
    127 H127      -82.6874   24.1765  -72.0629 H         1 UNK         0.2896 
@<TRIPOS>BOND
     1    1    2 1    
     2    1   67 1    
     3    1   68 1    
     4    1   69 1    
     5    2    3 2    
     6    2    4 am   BACKBONE|DICT|INTERRES
     7    4    5 1    
     8    4   70 1    
     9    5    6 1    
    10    5   65 1    
    11    5   71 1    
    12    6    7 1    
    13    6   72 1    
    14    6   73 1    
    15    7    8 1    
    16    8    9 1    
    17    8   74 1    
    18    8   75 1    
    19    9   10 ar   
    20    9   14 ar   
    21   10   11 ar   
    22   10   76 1    
    23   11   12 ar   
    24   11   48 1    
    25   12   13 ar   
    26   12   77 1    
    27   13   14 ar   
    28   13   15 1    
    29   14   78 1    
    30   15   16 1    
    31   15   79 1    
    32   15   80 1    
    33   16   17 1    
    34   17   18 1    
    35   17   81 1    
    36   17   82 1    
    37   18   19 1    
    38   18   22 1    
    39   18   83 1    
    40   19   20 am   BACKBONE|DICT|INTERRES
    41   19   21 2    
    42   20   84 1    
    43   20   85 1    
    44   22   23 am   BACKBONE|DICT|INTERRES
    45   22   86 1    
    46   23   24 2    
    47   23   25 1    
    48   25   26 1    
    49   25   27 1    
    50   25   87 1    
    51   26   88 1    
    52   26   89 1    
    53   26   90 1    
    54   27   28 am   BACKBONE|DICT|INTERRES
    55   27   91 1    
    56   28   29 2    
    57   28   30 1    
    58   30   31 1    
    59   30   32 1    
    60   30   92 1    
    61   31   93 1    
    62   31   94 1    
    63   31   95 1    
    64   32   33 am   BACKBONE|DICT|INTERRES
    65   32   96 1    
    66   33   34 2    
    67   33   35 1    
    68   35   36 1    
    69   35   37 1    
    70   35   97 1    
    71   36   98 1    
    72   36   99 1    
    73   36  100 1    
    74   37   38 am   BACKBONE|DICT|INTERRES
    75   37  101 1    
    76   38   39 2    
    77   38   40 1    
    78   40   41 1    
    79   40   42 1    
    80   40  102 1    
    81   41  103 1    
    82   41  104 1    
    83   41  105 1    
    84   42   43 am   BACKBONE|DICT|INTERRES
    85   42  106 1    
    86   43   44 2    
    87   43   45 1    
    88   45   46 1    
    89   45   49 1    
    90   45  107 1    
    91   46   47 1    
    92   46  108 1    
    93   46  109 1    
    94   47   48 1    
    95   48  110 1    
    96   48  111 1    
    97   49   50 am   BACKBONE|DICT|INTERRES
    98   49  112 1    
    99   50   51 2    
   100   50   52 1    
   101   52   53 1    
   102   52   54 1    
   103   52  113 1    
   104   53  114 1    
   105   53  115 1    
   106   53  116 1    
   107   54   55 am   BACKBONE|DICT|INTERRES
   108   54  117 1    
   109   55   56 2    
   110   55   57 1    
   111   57   58 1    
   112   57   59 1    
   113   57  118 1    
   114   58  119 1    
   115   58  120 1    
   116   58  121 1    
   117   59   60 am   BACKBONE|DICT|INTERRES
   118   59  122 1    
   119   60   61 2    
   120   60   62 1    
   121   62   63 1    
   122   62   64 1    
   123   62  123 1    
   124   63  124 1    
   125   63  125 1    
   126   63  126 1    
   127   64   65 am   BACKBONE|DICT|INTERRES
   128   64  127 1    
   129   65   66 2    
@<TRIPOS>SUBSTRUCTURE
     1 UNK         1 GROUP             0       ****    0 ROOT    
