@<TRIPOS>MOLECULE
3R135
127   129    1
SMALL
USER_CHARGES


@<TRIPOS>ATOM
      1 CA        -84.7023   30.1207  -75.0248 C.3       0 UNK        -0.1998 
      2 C         -83.4229   29.5812  -75.6462 C.2       0 UNK         0.4909 
      3 O         -83.2426   29.6784  -76.8603 O.2       0 UNK        -0.5240 
      4 N         -82.5322   29.0147  -74.8222 N.am      1 UNK        -0.4739 
      5 CA        -81.2631   28.4078  -75.2446 C.3       1 UNK         0.0864 
      6 C6        -80.2804   28.2381  -74.0557 C.3       11 UNK        -0.0881 
      7 S7        -80.9825   27.3007  -72.6490 S.3       11 UNK        -0.2682 
      8 C8        -80.6887   28.4322  -71.2522 C.3       11 UNK         0.0289 
      9 C9        -79.2154   28.4862  -70.8750 C.ar      11 UNK        -0.0687 
     10 C10       -78.6028   27.3656  -70.3057 C.ar      11 UNK        -0.0823 
     11 C11       -77.2431   27.3891  -69.9875 C.ar      11 UNK        -0.0830 
     12 C12       -76.5098   28.5630  -70.1829 C.ar      11 UNK        -0.1021 
     13 C13       -77.1008   29.6793  -70.7792 C.ar      11 UNK        -0.0753 
     14 C14       -78.4583   29.6382  -71.1164 C.ar      11 UNK        -0.0933 
     15 C15       -76.2628   30.9128  -71.0900 C.3       11 UNK         0.0166 
     16 S16       -75.2665   30.6886  -72.6045 S.3       11 UNK        -0.2615 
     17 C17       -73.8338   29.7350  -71.9873 C.3       11 UNK        -0.0865 
     18 CA        -72.5148   30.0773  -72.7244 C.3       10 UNK         0.0862 
     19 C         -71.3041   29.4190  -72.0109 C.2       10 UNK         0.5551 
     20 N         -70.5430   30.1850  -71.2417 N.am      10 UNK        -0.7319 
     21 O         -71.0824   28.2140  -72.1102 O.2       10 UNK        -0.5018 
     22 N         -72.5668   29.6819  -74.1376 N.am      10 UNK        -0.4509 
     23 C         -71.7491   30.1540  -75.0857 C.2       10 UNK         0.4899 
     24 O         -70.9138   31.0399  -74.8928 O.2       10 UNK        -0.4839 
     25 CA        -71.9060   29.5276  -76.4829 C.3       9 UNK         0.0222 
     26 CB        -70.9314   30.1084  -77.5297 C.3       9 UNK        -0.1966 
     27 N         -71.8306   28.0643  -76.4446 N.am      9 UNK        -0.4218 
     28 C         -70.7939   27.2916  -76.0837 C.2       9 UNK         0.5020 
     29 O         -69.6903   27.7259  -75.7512 O.2       9 UNK        -0.5274 
     30 CA        -71.0172   25.7639  -76.0966 C.3       8 UNK         0.0270 
     31 CB        -71.1412   25.2302  -74.6600 C.3       8 UNK        -0.1976 
     32 N         -72.1953   25.3459  -76.8645 N.am      8 UNK        -0.4313 
     33 C         -72.3043   25.4022  -78.1999 C.2       8 UNK         0.5041 
     34 O         -71.3782   25.7057  -78.9523 O.2       8 UNK        -0.5577 
     35 CA        -73.6993   25.1286  -78.7883 C.3       7 UNK         0.0284 
     36 CB        -73.9239   23.6241  -79.0122 C.3       7 UNK        -0.1958 
     37 N         -74.7633   25.6769  -77.9402 N.am      7 UNK        -0.4454 
     38 C         -75.0205   26.9866  -77.8066 C.2       7 UNK         0.5089 
     39 O         -74.4431   27.8647  -78.4461 O.2       7 UNK        -0.5125 
     40 CA        -76.0579   27.3949  -76.7490 C.3       6 UNK         0.0408 
     41 CB        -77.4648   27.4441  -77.3577 C.3       6 UNK        -0.1791 
     42 N         -76.0491   26.5081  -75.5834 N.am      6 UNK        -0.4762 
     43 C         -75.0913   26.5225  -74.6416 C.2       6 UNK         0.5007 
     44 O         -74.1510   27.3165  -74.6453 O.2       6 UNK        -0.5032 
     45 CA        -75.1842   25.4679  -73.5158 C.3       5 UNK         0.0783 
     46 C46       -75.9890   26.0666  -72.3444 C.3       11 UNK        -0.0857 
     47 S47       -76.2772   24.9461  -70.9286 S.3       11 UNK        -0.2512 
     48 C48       -76.5337   26.1168  -69.5412 C.3       11 UNK         0.0225 
     49 N         -75.7456   24.1968  -73.9738 N.am      5 UNK        -0.4615 
     50 C         -75.2711   23.4462  -74.9755 C.2       4 UNK         0.5053 
     51 O         -74.2281   23.7013  -75.5771 O.2       4 UNK        -0.5105 
     52 CA        -76.1296   22.2475  -75.4230 C.3       4 UNK         0.0263 
     53 CB        -75.5126   20.9334  -74.9199 C.3       4 UNK        -0.1981 
     54 N         -77.5366   22.3177  -75.0003 N.am      4 UNK        -0.4224 
     55 C         -78.4021   23.2866  -75.3336 C.2       3 UNK         0.4895 
     56 O         -78.1154   24.2495  -76.0510 O.2       3 UNK        -0.5091 
     57 CA        -79.7890   23.2000  -74.6894 C.3       3 UNK         0.0250 
     58 CB        -79.7259   23.6529  -73.2167 C.3       3 UNK        -0.1996 
     59 N         -80.7146   24.0541  -75.4267 N.am      3 UNK        -0.4254 
     60 C         -82.0469   23.9392  -75.4423 C.2       2 UNK         0.5004 
     61 O         -82.6600   23.0569  -74.8377 O.2       2 UNK        -0.5226 
     62 CA        -82.8198   25.0103  -76.2399 C.3       2 UNK         0.0269 
     63 CB        -84.3430   24.7797  -76.2296 C.3       2 UNK        -0.1926 
     64 N         -82.5439   26.3516  -75.7189 N.am      2 UNK        -0.4687 
     65 C         -81.4536   27.0768  -76.0039 C.2       1 UNK         0.5165 
     66 O         -80.6018   26.7136  -76.8147 O.2       1 UNK        -0.5079 
     67 H67       -84.7954   31.1878  -75.2250 H         1 UNK         0.0900 
     68 H68       -84.7243   29.9753  -73.9449 H         1 UNK         0.0900 
     69 H69       -85.5684   29.6166  -75.4527 H         1 UNK         0.0900 
     70 H70       -82.7286   28.9561  -73.8326 H         1 UNK         0.2959 
     71 H71       -80.7955   29.0921  -75.9566 H         1 UNK         0.1079 
     72 H72       -79.3606   27.7437  -74.3751 H         1 UNK         0.0837 
     73 H73       -79.9697   29.2250  -73.7107 H         1 UNK         0.0837 
     74 H74       -81.2632   28.0851  -70.3923 H         1 UNK         0.0685 
     75 H75       -81.0715   29.4245  -71.4958 H         1 UNK         0.0685 
     76 H76       -79.1726   26.4574  -70.1629 H         1 UNK         0.1434 
     77 H77       -75.4578   28.5821  -69.9368 H         1 UNK         0.1329 
     78 H78       -78.9214   30.4983  -71.5803 H         1 UNK         0.1335 
     79 H79       -76.9128   31.7778  -71.2307 H         1 UNK         0.0680 
     80 H80       -75.6186   31.1565  -70.2440 H         1 UNK         0.0680 
     81 H81       -74.0488   28.6712  -72.0792 H         1 UNK         0.1032 
     82 H82       -73.7198   29.9335  -70.9201 H         1 UNK         0.1032 
     83 H83       -72.3868   31.1614  -72.6849 H         1 UNK         0.0461 
     84 H84       -69.7626   29.7703  -70.7567 H         1 UNK         0.3453 
     85 H85       -70.7218   31.1730  -71.1498 H         1 UNK         0.3453 
     86 H86       -73.1844   28.9051  -74.3609 H         1 UNK         0.2984 
     87 H87       -72.9180   29.7678  -76.8125 H         1 UNK         0.0554 
     88 H88       -71.0713   31.1847  -77.6361 H         1 UNK         0.0847 
     89 H89       -71.0933   29.6620  -78.5108 H         1 UNK         0.0847 
     90 H90       -69.8896   29.9434  -77.2535 H         1 UNK         0.0847 
     91 H91       -72.6958   27.5887  -76.6594 H         1 UNK         0.3141 
     92 H92       -70.1376   25.3084  -76.5562 H         1 UNK         0.0743 
     93 H93       -70.2375   25.4428  -74.0872 H         1 UNK         0.0784 
     94 H94       -71.9729   25.6940  -74.1300 H         1 UNK         0.0784 
     95 H95       -71.2902   24.1503  -74.6448 H         1 UNK         0.0784 
     96 H96       -72.9844   24.9827  -76.3354 H         1 UNK         0.3213 
     97 H97       -73.7517   25.6246  -79.7603 H         1 UNK         0.0855 
     98 H98       -73.8568   23.0551  -78.0851 H         1 UNK         0.0814 
     99 H99       -73.1738   23.2196  -79.6931 H         1 UNK         0.0814 
    100 H100      -74.9005   23.4299  -79.4558 H         1 UNK         0.0814 
    101 H101      -75.2612   25.0263  -77.3493 H         1 UNK         0.3105 
    102 H102      -75.8064   28.4039  -76.4138 H         1 UNK         0.0547 
    103 H103      -77.4905   28.0898  -78.2364 H         1 UNK         0.0837 
    104 H104      -77.8112   26.4572  -77.6671 H         1 UNK         0.0837 
    105 H105      -78.1841   27.8442  -76.6445 H         1 UNK         0.0837 
    106 H106      -76.7823   25.8073  -75.5369 H         1 UNK         0.3020 
    107 H107      -74.1681   25.2663  -73.1710 H         1 UNK         0.1245 
    108 H108      -76.9641   26.4229  -72.6854 H         1 UNK         0.0781 
    109 H109      -75.4523   26.9386  -71.9780 H         1 UNK         0.0781 
    110 H110      -77.1127   25.6250  -68.7583 H         1 UNK         0.0836 
    111 H111      -75.5649   26.3555  -69.0994 H         1 UNK         0.0836 
    112 H112      -76.5930   23.9009  -73.5136 H         1 UNK         0.3022 
    113 H113      -76.1157   22.2371  -76.5148 H         1 UNK         0.0747 
    114 H114      -74.4748   20.8402  -75.2439 H         1 UNK         0.0793 
    115 H115      -76.0488   20.0674  -75.3086 H         1 UNK         0.0793 
    116 H116      -75.5201   20.8744  -73.8307 H         1 UNK         0.0793 
    117 H117      -77.8561   21.5751  -74.3942 H         1 UNK         0.3047 
    118 H118      -80.1335   22.1651  -74.7464 H         1 UNK         0.0822 
    119 H119      -80.7074   23.6123  -72.7441 H         1 UNK         0.0807 
    120 H120      -79.3582   24.6762  -73.1265 H         1 UNK         0.0807 
    121 H121      -79.0628   23.0152  -72.6309 H         1 UNK         0.0807 
    122 H122      -80.2741   24.7918  -75.9703 H         1 UNK         0.2946 
    123 H123      -82.4804   24.9485  -77.2767 H         1 UNK         0.1144 
    124 H124      -84.5926   23.8001  -76.6397 H         1 UNK         0.0793 
    125 H125      -84.8601   25.5238  -76.8357 H         1 UNK         0.0793 
    126 H126      -84.7528   24.8257  -75.2198 H         1 UNK         0.0793 
    127 H127      -83.1731   26.7043  -75.0124 H         1 UNK         0.2896 
@<TRIPOS>BOND
     1    1    2 1    
     2    1   67 1    
     3    1   68 1    
     4    1   69 1    
     5    2    3 2    
     6    2    4 am   BACKBONE|DICT|INTERRES
     7    4    5 1    
     8    4   70 1    
     9    5    6 1    
    10    5   65 1    
    11    5   71 1    
    12    6    7 1    
    13    6   72 1    
    14    6   73 1    
    15    7    8 1    
    16    8    9 1    
    17    8   74 1    
    18    8   75 1    
    19    9   10 ar   
    20    9   14 ar   
    21   10   11 ar   
    22   10   76 1    
    23   11   12 ar   
    24   11   48 1    
    25   12   13 ar   
    26   12   77 1    
    27   13   14 ar   
    28   13   15 1    
    29   14   78 1    
    30   15   16 1    
    31   15   79 1    
    32   15   80 1    
    33   16   17 1    
    34   17   18 1    
    35   17   81 1    
    36   17   82 1    
    37   18   19 1    
    38   18   22 1    
    39   18   83 1    
    40   19   20 am   BACKBONE|DICT|INTERRES
    41   19   21 2    
    42   20   84 1    
    43   20   85 1    
    44   22   23 am   BACKBONE|DICT|INTERRES
    45   22   86 1    
    46   23   24 2    
    47   23   25 1    
    48   25   26 1    
    49   25   27 1    
    50   25   87 1    
    51   26   88 1    
    52   26   89 1    
    53   26   90 1    
    54   27   28 am   BACKBONE|DICT|INTERRES
    55   27   91 1    
    56   28   29 2    
    57   28   30 1    
    58   30   31 1    
    59   30   32 1    
    60   30   92 1    
    61   31   93 1    
    62   31   94 1    
    63   31   95 1    
    64   32   33 am   BACKBONE|DICT|INTERRES
    65   32   96 1    
    66   33   34 2    
    67   33   35 1    
    68   35   36 1    
    69   35   37 1    
    70   35   97 1    
    71   36   98 1    
    72   36   99 1    
    73   36  100 1    
    74   37   38 am   BACKBONE|DICT|INTERRES
    75   37  101 1    
    76   38   39 2    
    77   38   40 1    
    78   40   41 1    
    79   40   42 1    
    80   40  102 1    
    81   41  103 1    
    82   41  104 1    
    83   41  105 1    
    84   42   43 am   BACKBONE|DICT|INTERRES
    85   42  106 1    
    86   43   44 2    
    87   43   45 1    
    88   45   46 1    
    89   45   49 1    
    90   45  107 1    
    91   46   47 1    
    92   46  108 1    
    93   46  109 1    
    94   47   48 1    
    95   48  110 1    
    96   48  111 1    
    97   49   50 am   BACKBONE|DICT|INTERRES
    98   49  112 1    
    99   50   51 2    
   100   50   52 1    
   101   52   53 1    
   102   52   54 1    
   103   52  113 1    
   104   53  114 1    
   105   53  115 1    
   106   53  116 1    
   107   54   55 am   BACKBONE|DICT|INTERRES
   108   54  117 1    
   109   55   56 2    
   110   55   57 1    
   111   57   58 1    
   112   57   59 1    
   113   57  118 1    
   114   58  119 1    
   115   58  120 1    
   116   58  121 1    
   117   59   60 am   BACKBONE|DICT|INTERRES
   118   59  122 1    
   119   60   61 2    
   120   60   62 1    
   121   62   63 1    
   122   62   64 1    
   123   62  123 1    
   124   63  124 1    
   125   63  125 1    
   126   63  126 1    
   127   64   65 am   BACKBONE|DICT|INTERRES
   128   64  127 1    
   129   65   66 2    
@<TRIPOS>SUBSTRUCTURE
     1 UNK         1 GROUP             0       ****    0 ROOT    
