@<TRIPOS>MOLECULE
3R135
127   129    1
SMALL
USER_CHARGES


@<TRIPOS>ATOM
      1 CA        -84.8264   27.0290  -73.2037 C.3       0 UNK        -0.1998 
      2 C         -83.7839   27.2589  -72.1124 C.2       0 UNK         0.4909 
      3 O         -84.0528   26.9576  -70.9513 O.2       0 UNK        -0.5240 
      4 N         -82.5912   27.7925  -72.4154 N.am      1 UNK        -0.4739 
      5 CA        -82.0837   28.1619  -73.7457 C.3       1 UNK         0.0864 
      6 C6        -80.8015   29.0243  -73.6517 C.3       11 UNK        -0.0881 
      7 S7        -81.0973   30.6373  -72.8440 S.3       11 UNK        -0.2682 
      8 C8        -80.6487   30.3304  -71.1019 C.3       11 UNK         0.0289 
      9 C9        -79.1708   30.0131  -70.9316 C.ar      11 UNK        -0.0687 
     10 C10       -78.7495   28.6958  -70.7354 C.ar      11 UNK        -0.0823 
     11 C11       -77.3898   28.3957  -70.6198 C.ar      11 UNK        -0.0830 
     12 C12       -76.4541   29.4344  -70.6464 C.ar      11 UNK        -0.1021 
     13 C13       -76.8588   30.7634  -70.8372 C.ar      11 UNK        -0.0753 
     14 C14       -78.2228   31.0385  -70.9764 C.ar      11 UNK        -0.0933 
     15 C15       -75.8784   31.9387  -70.9022 C.3       11 UNK         0.0166 
     16 S16       -74.1088   31.5175  -71.0742 S.3       11 UNK        -0.2615 
     17 C17       -74.0696   30.7604  -72.7357 C.3       11 UNK        -0.0865 
     18 CA        -72.8476   29.8285  -72.9360 C.3       10 UNK         0.0862 
     19 C         -72.9091   28.5485  -72.0656 C.2       10 UNK         0.5551 
     20 N         -72.0349   28.4183  -71.0776 N.am      10 UNK        -0.7319 
     21 O         -73.7579   27.6845  -72.2644 O.2       10 UNK        -0.5018 
     22 N         -72.7213   29.4356  -74.3393 N.am      10 UNK        -0.4509 
     23 C         -71.8983   29.9909  -75.2349 C.2       10 UNK         0.4899 
     24 O         -71.2031   30.9827  -75.0079 O.2       10 UNK        -0.4839 
     25 CA        -71.8408   29.3025  -76.6128 C.3       9 UNK         0.0222 
     26 CB        -70.6810   29.8024  -77.4999 C.3       9 UNK        -0.1966 
     27 N         -71.8263   27.8401  -76.4957 N.am      9 UNK        -0.4218 
     28 C         -70.9106   27.0719  -75.8844 C.2       9 UNK         0.5020 
     29 O         -69.8600   27.4996  -75.4040 O.2       9 UNK        -0.5274 
     30 CA        -71.2255   25.5691  -75.7537 C.3       8 UNK         0.0270 
     31 CB        -71.6331   25.2412  -74.3075 C.3       8 UNK        -0.1976 
     32 N         -72.2763   25.1031  -76.6643 N.am      8 UNK        -0.4313 
     33 C         -72.1289   24.9686  -77.9899 C.2       8 UNK         0.5041 
     34 O         -71.0649   25.1524  -78.5824 O.2       8 UNK        -0.5577 
     35 CA        -73.3850   24.5976  -78.7961 C.3       7 UNK         0.0284 
     36 CB        -73.6235   23.0796  -78.7594 C.3       7 UNK        -0.1958 
     37 N         -74.5885   25.3005  -78.3403 N.am      7 UNK        -0.4454 
     38 C         -74.7742   26.6274  -78.4065 C.2       7 UNK         0.5089 
     39 O         -73.9577   27.4104  -78.8906 O.2       7 UNK        -0.5125 
     40 CA        -76.0656   27.1844  -77.7815 C.3       6 UNK         0.0408 
     41 CB        -77.2655   26.9906  -78.7210 C.3       6 UNK        -0.1791 
     42 N         -76.3547   26.5948  -76.4727 N.am      6 UNK        -0.4762 
     43 C         -75.5754   26.7347  -75.3889 C.2       6 UNK         0.5007 
     44 O         -74.5556   27.4238  -75.3637 O.2       6 UNK        -0.5032 
     45 CA        -75.9881   25.9374  -74.1389 C.3       5 UNK         0.0783 
     46 C46       -77.0501   26.7245  -73.3353 C.3       11 UNK        -0.0857 
     47 S47       -77.5897   25.8702  -71.8139 S.3       11 UNK        -0.2512 
     48 C48       -76.9209   26.9488  -70.4985 C.3       11 UNK         0.0225 
     49 N         -76.4270   24.5865  -74.5025 N.am      5 UNK        -0.4615 
     50 C         -75.6207   23.6360  -74.9957 C.2       4 UNK         0.5053 
     51 O         -74.4132   23.7888  -75.1752 O.2       4 UNK        -0.5105 
     52 CA        -76.2789   22.3067  -75.4022 C.3       4 UNK         0.0263 
     53 CB        -76.4750   21.4031  -74.1747 C.3       4 UNK        -0.1981 
     54 N         -77.5616   22.4973  -76.0825 N.am      4 UNK        -0.4224 
     55 C         -77.7133   23.1231  -77.2592 C.2       3 UNK         0.4895 
     56 O         -76.7760   23.5374  -77.9385 O.2       3 UNK        -0.5091 
     57 CA        -79.1533   23.3762  -77.7382 C.3       3 UNK         0.0250 
     58 CB        -79.6334   22.2218  -78.6316 C.3       3 UNK        -0.1996 
     59 N         -80.1092   23.5829  -76.6447 N.am      3 UNK        -0.4254 
     60 C         -80.0356   24.5687  -75.7390 C.2       2 UNK         0.5004 
     61 O         -79.1400   25.4172  -75.7192 O.2       2 UNK        -0.5226 
     62 CA        -81.1004   24.5367  -74.6294 C.3       2 UNK         0.0269 
     63 CB        -80.6854   23.5434  -73.5305 C.3       2 UNK        -0.1926 
     64 N         -81.3375   25.8409  -74.0082 N.am      2 UNK        -0.4687 
     65 C         -81.8371   26.9202  -74.6270 C.2       1 UNK         0.5165 
     66 O         -82.1579   26.9464  -75.8156 O.2       1 UNK        -0.5079 
     67 H67       -84.9305   27.8976  -73.8524 H         1 UNK         0.0900 
     68 H68       -84.5649   26.1628  -73.8105 H         1 UNK         0.0900 
     69 H69       -85.8029   26.8384  -72.7590 H         1 UNK         0.0900 
     70 H70       -81.9443   27.9469  -71.6578 H         1 UNK         0.2959 
     71 H71       -82.8441   28.7639  -74.2468 H         1 UNK         0.1079 
     72 H72       -80.4215   29.2402  -74.6525 H         1 UNK         0.0837 
     73 H73       -80.0004   28.4842  -73.1471 H         1 UNK         0.0837 
     74 H74       -81.2668   29.5306  -70.6938 H         1 UNK         0.0685 
     75 H75       -80.8924   31.2204  -70.5199 H         1 UNK         0.0685 
     76 H76       -79.4754   27.8950  -70.7064 H         1 UNK         0.1434 
     77 H77       -75.4071   29.1930  -70.5375 H         1 UNK         0.1329 
     78 H78       -78.5517   32.0576  -71.1297 H         1 UNK         0.1335 
     79 H79       -75.9965   32.5305  -69.9936 H         1 UNK         0.0680 
     80 H80       -76.1527   32.5919  -71.7322 H         1 UNK         0.0680 
     81 H81       -74.9970   30.2197  -72.9323 H         1 UNK         0.1032 
     82 H82       -74.0379   31.5726  -73.4635 H         1 UNK         0.1032 
     83 H83       -71.9514   30.3828  -72.6485 H         1 UNK         0.0461 
     84 H84       -72.0708   27.5943  -70.4991 H         1 UNK         0.3453 
     85 H85       -71.3459   29.1309  -70.8946 H         1 UNK         0.3453 
     86 H86       -73.2682   28.6199  -74.6099 H         1 UNK         0.2984 
     87 H87       -72.7744   29.5538  -77.1182 H         1 UNK         0.0554 
     88 H88       -70.7690   30.8727  -77.6900 H         1 UNK         0.0847 
     89 H89       -70.6793   29.3009  -78.4677 H         1 UNK         0.0847 
     90 H90       -69.7100   29.6351  -77.0330 H         1 UNK         0.0847 
     91 H91       -72.6670   27.3802  -76.8216 H         1 UNK         0.3141 
     92 H92       -70.3085   25.0223  -75.9831 H         1 UNK         0.0743 
     93 H93       -70.8624   25.5520  -73.6009 H         1 UNK         0.0784 
     94 H94       -72.5562   25.7494  -74.0257 H         1 UNK         0.0784 
     95 H95       -71.7854   24.1705  -74.1705 H         1 UNK         0.0784 
     96 H96       -73.1651   24.8473  -76.2403 H         1 UNK         0.3213 
     97 H97       -73.2074   24.8882  -79.8338 H         1 UNK         0.0855 
     98 H98       -73.8423   22.7294  -77.7502 H         1 UNK         0.0814 
     99 H99       -72.7450   22.5370  -79.1111 H         1 UNK         0.0814 
    100 H100      -74.4584   22.7944  -79.3997 H         1 UNK         0.0814 
    101 H101      -75.3471   24.7206  -77.9860 H         1 UNK         0.3105 
    102 H102      -75.9269   28.2573  -77.6323 H         1 UNK         0.0547 
    103 H103      -78.1798   27.3978  -78.2888 H         1 UNK         0.0837 
    104 H104      -77.4406   25.9392  -78.9464 H         1 UNK         0.0837 
    105 H105      -77.0997   27.5010  -79.6706 H         1 UNK         0.0837 
    106 H106      -77.1962   26.0337  -76.3889 H         1 UNK         0.3020 
    107 H107      -75.0986   25.8344  -73.5138 H         1 UNK         0.1245 
    108 H108      -77.9386   26.9100  -73.9406 H         1 UNK         0.0781 
    109 H109      -76.6560   27.7097  -73.0814 H         1 UNK         0.0781 
    110 H110      -75.8315   26.8904  -70.5266 H         1 UNK         0.0836 
    111 H111      -77.2266   26.5564  -69.5279 H         1 UNK         0.0836 
    112 H112      -77.4192   24.4122  -74.4354 H         1 UNK         0.3022 
    113 H113      -75.6043   21.8008  -76.0961 H         1 UNK         0.0747 
    114 H114      -76.8661   20.4261  -74.4593 H         1 UNK         0.0793 
    115 H115      -75.5272   21.2337  -73.6616 H         1 UNK         0.0793 
    116 H116      -77.1626   21.8435  -73.4512 H         1 UNK         0.0793 
    117 H117      -78.3886   22.1784  -75.6004 H         1 UNK         0.3047 
    118 H118      -79.1412   24.2887  -78.3374 H         1 UNK         0.0822 
    119 H119      -80.6151   22.4303  -79.0573 H         1 UNK         0.0807 
    120 H120      -79.6972   21.2822  -78.0812 H         1 UNK         0.0807 
    121 H121      -78.9483   22.0644  -79.4661 H         1 UNK         0.0807 
    122 H122      -80.8689   22.9199  -76.5825 H         1 UNK         0.2946 
    123 H123      -82.0435   24.2060  -75.0705 H         1 UNK         0.1144 
    124 H124      -79.7499   23.8385  -73.0528 H         1 UNK         0.0793 
    125 H125      -80.5435   22.5401  -73.9341 H         1 UNK         0.0793 
    126 H126      -81.4476   23.4694  -72.7544 H         1 UNK         0.0793 
    127 H127      -81.1032   25.9210  -73.0299 H         1 UNK         0.2896 
@<TRIPOS>BOND
     1    1    2 1    
     2    1   67 1    
     3    1   68 1    
     4    1   69 1    
     5    2    3 2    
     6    2    4 am   BACKBONE|DICT|INTERRES
     7    4    5 1    
     8    4   70 1    
     9    5    6 1    
    10    5   65 1    
    11    5   71 1    
    12    6    7 1    
    13    6   72 1    
    14    6   73 1    
    15    7    8 1    
    16    8    9 1    
    17    8   74 1    
    18    8   75 1    
    19    9   10 ar   
    20    9   14 ar   
    21   10   11 ar   
    22   10   76 1    
    23   11   12 ar   
    24   11   48 1    
    25   12   13 ar   
    26   12   77 1    
    27   13   14 ar   
    28   13   15 1    
    29   14   78 1    
    30   15   16 1    
    31   15   79 1    
    32   15   80 1    
    33   16   17 1    
    34   17   18 1    
    35   17   81 1    
    36   17   82 1    
    37   18   19 1    
    38   18   22 1    
    39   18   83 1    
    40   19   20 am   BACKBONE|DICT|INTERRES
    41   19   21 2    
    42   20   84 1    
    43   20   85 1    
    44   22   23 am   BACKBONE|DICT|INTERRES
    45   22   86 1    
    46   23   24 2    
    47   23   25 1    
    48   25   26 1    
    49   25   27 1    
    50   25   87 1    
    51   26   88 1    
    52   26   89 1    
    53   26   90 1    
    54   27   28 am   BACKBONE|DICT|INTERRES
    55   27   91 1    
    56   28   29 2    
    57   28   30 1    
    58   30   31 1    
    59   30   32 1    
    60   30   92 1    
    61   31   93 1    
    62   31   94 1    
    63   31   95 1    
    64   32   33 am   BACKBONE|DICT|INTERRES
    65   32   96 1    
    66   33   34 2    
    67   33   35 1    
    68   35   36 1    
    69   35   37 1    
    70   35   97 1    
    71   36   98 1    
    72   36   99 1    
    73   36  100 1    
    74   37   38 am   BACKBONE|DICT|INTERRES
    75   37  101 1    
    76   38   39 2    
    77   38   40 1    
    78   40   41 1    
    79   40   42 1    
    80   40  102 1    
    81   41  103 1    
    82   41  104 1    
    83   41  105 1    
    84   42   43 am   BACKBONE|DICT|INTERRES
    85   42  106 1    
    86   43   44 2    
    87   43   45 1    
    88   45   46 1    
    89   45   49 1    
    90   45  107 1    
    91   46   47 1    
    92   46  108 1    
    93   46  109 1    
    94   47   48 1    
    95   48  110 1    
    96   48  111 1    
    97   49   50 am   BACKBONE|DICT|INTERRES
    98   49  112 1    
    99   50   51 2    
   100   50   52 1    
   101   52   53 1    
   102   52   54 1    
   103   52  113 1    
   104   53  114 1    
   105   53  115 1    
   106   53  116 1    
   107   54   55 am   BACKBONE|DICT|INTERRES
   108   54  117 1    
   109   55   56 2    
   110   55   57 1    
   111   57   58 1    
   112   57   59 1    
   113   57  118 1    
   114   58  119 1    
   115   58  120 1    
   116   58  121 1    
   117   59   60 am   BACKBONE|DICT|INTERRES
   118   59  122 1    
   119   60   61 2    
   120   60   62 1    
   121   62   63 1    
   122   62   64 1    
   123   62  123 1    
   124   63  124 1    
   125   63  125 1    
   126   63  126 1    
   127   64   65 am   BACKBONE|DICT|INTERRES
   128   64  127 1    
   129   65   66 2    
@<TRIPOS>SUBSTRUCTURE
     1 UNK         1 GROUP             0       ****    0 ROOT    
