@<TRIPOS>MOLECULE
3R135
127   129    1
SMALL
USER_CHARGES


@<TRIPOS>ATOM
      1 CA        -86.0126   26.6343  -69.6479 C.3       0 UNK        -0.1998 
      2 C         -85.3458   26.8763  -70.9940 C.2       0 UNK         0.4909 
      3 O         -86.0391   27.0597  -71.9958 O.2       0 UNK        -0.5240 
      4 N         -84.0076   26.8877  -71.0210 N.am      1 UNK        -0.4739 
      5 CA        -83.1897   27.0342  -72.2294 C.3       1 UNK         0.0864 
      6 C6        -81.8653   27.7878  -71.9240 C.3       11 UNK        -0.0881 
      7 S7        -80.7355   26.9287  -70.7664 S.3       11 UNK        -0.2682 
      8 C8        -79.2991   26.5396  -71.8220 C.3       11 UNK         0.0289 
      9 C9        -78.2953   27.6843  -71.8892 C.ar      11 UNK        -0.0687 
     10 C10       -78.5288   28.7812  -72.7214 C.ar      11 UNK        -0.0823 
     11 C11       -77.6252   29.8448  -72.7767 C.ar      11 UNK        -0.0830 
     12 C12       -76.4684   29.8045  -71.9921 C.ar      11 UNK        -0.1021 
     13 C13       -76.2003   28.6958  -71.1809 C.ar      11 UNK        -0.0753 
     14 C14       -77.1207   27.6424  -71.1311 C.ar      11 UNK        -0.0933 
     15 C15       -74.9362   28.6406  -70.3313 C.3       11 UNK         0.0166 
     16 S16       -73.4788   28.0931  -71.2841 S.3       11 UNK        -0.2615 
     17 C17       -72.8557   29.6704  -71.9651 C.3       11 UNK        -0.0865 
     18 CA        -73.1776   29.8235  -73.4773 C.3       10 UNK         0.0862 
     19 C         -73.0970   31.2904  -73.9996 C.2       10 UNK         0.5551 
     20 N         -73.2140   31.5019  -75.3043 N.am      10 UNK        -0.7319 
     21 O         -72.9400   32.2381  -73.2332 O.2       10 UNK        -0.5018 
     22 N         -72.4564   28.8571  -74.3262 N.am      10 UNK        -0.4509 
     23 C         -71.1480   28.8991  -74.6161 C.2       10 UNK         0.4899 
     24 O         -70.3569   29.6950  -74.1061 O.2       10 UNK        -0.4839 
     25 CA        -70.6479   27.9016  -75.6808 C.3       9 UNK         0.0222 
     26 CB        -69.1082   27.8354  -75.7733 C.3       9 UNK        -0.1966 
     27 N         -71.2176   26.5575  -75.5421 N.am      9 UNK        -0.4218 
     28 C         -71.1123   25.7305  -74.4881 C.2       9 UNK         0.5020 
     29 O         -70.4806   26.0006  -73.4655 O.2       9 UNK        -0.5274 
     30 CA        -71.8154   24.3633  -74.5865 C.3       8 UNK         0.0270 
     31 CB        -72.6433   24.0668  -73.3218 C.3       8 UNK        -0.1976 
     32 N         -72.6853   24.2867  -75.7651 N.am      8 UNK        -0.4313 
     33 C         -72.4441   23.5338  -76.8460 C.2       8 UNK         0.5041 
     34 O         -71.4890   22.7615  -76.9396 O.2       8 UNK        -0.5577 
     35 CA        -73.4064   23.6587  -78.0413 C.3       7 UNK         0.0284 
     36 CB        -74.4597   22.5384  -78.0216 C.3       7 UNK        -0.1958 
     37 N         -74.0724   24.9584  -78.1866 N.am      7 UNK        -0.4454 
     38 C         -73.4465   26.1064  -78.4865 C.2       7 UNK         0.5089 
     39 O         -72.2240   26.2453  -78.4589 O.2       7 UNK        -0.5125 
     40 CA        -74.3328   27.2971  -78.8818 C.3       6 UNK         0.0408 
     41 CB        -75.0271   27.0416  -80.2300 C.3       6 UNK        -0.1791 
     42 N         -75.3385   27.5452  -77.8541 N.am      6 UNK        -0.4762 
     43 C         -75.2049   28.4412  -76.8664 C.2       6 UNK         0.5007 
     44 O         -74.2809   29.2525  -76.7978 O.2       6 UNK        -0.5032 
     45 CA        -76.2414   28.3686  -75.7208 C.3       5 UNK         0.0783 
     46 C46       -77.4111   29.3623  -75.9334 C.3       11 UNK        -0.0857 
     47 S47       -76.9914   31.0009  -75.2415 S.3       11 UNK        -0.2512 
     48 C48       -77.9221   31.0399  -73.6741 C.3       11 UNK         0.0225 
     49 N         -76.6875   26.9982  -75.4445 N.am      5 UNK        -0.4615 
     50 C         -75.8494   26.0084  -75.0975 C.2       4 UNK         0.5053 
     51 O         -74.6436   26.1771  -74.9187 O.2       4 UNK        -0.5105 
     52 CA        -76.4062   24.5771  -75.0120 C.3       4 UNK         0.0263 
     53 CB        -76.6772   24.1957  -73.5501 C.3       4 UNK        -0.1981 
     54 N         -77.6141   24.3366  -75.8060 N.am      4 UNK        -0.4224 
     55 C         -77.7869   24.5756  -77.1156 C.2       3 UNK         0.4895 
     56 O         -76.8944   24.9946  -77.8552 O.2       3 UNK        -0.5091 
     57 CA        -79.1963   24.3403  -77.6970 C.3       3 UNK         0.0250 
     58 CB        -79.1754   23.1546  -78.6753 C.3       3 UNK        -0.1996 
     59 N         -80.2425   24.1147  -76.6879 N.am      3 UNK        -0.4254 
     60 C         -80.6540   25.0138  -75.7819 C.2       2 UNK         0.5004 
     61 O         -80.2220   26.1697  -75.7163 O.2       2 UNK        -0.5226 
     62 CA        -81.6486   24.5098  -74.7263 C.3       2 UNK         0.0269 
     63 CB        -80.9672   23.4577  -73.8190 C.3       2 UNK        -0.1926 
     64 N         -82.0940   25.6631  -73.9459 N.am      2 UNK        -0.4687 
     65 C         -82.9843   25.6768  -72.9469 C.2       1 UNK         0.5165 
     66 O         -83.6171   24.6783  -72.5915 O.2       1 UNK        -0.5079 
     67 H67       -86.6532   27.4769  -69.3890 H         1 UNK         0.0900 
     68 H68       -86.6294   25.7371  -69.6913 H         1 UNK         0.0900 
     69 H69       -85.2827   26.5054  -68.8488 H         1 UNK         0.0900 
     70 H70       -83.4883   26.7000  -70.1749 H         1 UNK         0.2959 
     71 H71       -83.7447   27.6536  -72.9380 H         1 UNK         0.1079 
     72 H72       -81.3518   28.0182  -72.8548 H         1 UNK         0.0837 
     73 H73       -82.0993   28.7603  -71.4879 H         1 UNK         0.0837 
     74 H74       -78.8204   25.6494  -71.4125 H         1 UNK         0.0685 
     75 H75       -79.6243   26.2729  -72.8273 H         1 UNK         0.0685 
     76 H76       -79.4170   28.8152  -73.3325 H         1 UNK         0.1434 
     77 H77       -75.7733   30.6319  -72.0218 H         1 UNK         0.1329 
     78 H78       -76.9249   26.7904  -70.4946 H         1 UNK         0.1335 
     79 H79       -74.7504   29.6104  -69.8679 H         1 UNK         0.0680 
     80 H80       -75.0796   27.9439  -69.5039 H         1 UNK         0.0680 
     81 H81       -73.2842   30.4915  -71.3892 H         1 UNK         0.1032 
     82 H82       -71.7797   29.7273  -71.7954 H         1 UNK         0.1032 
     83 H83       -74.2284   29.5766  -73.5869 H         1 UNK         0.0461 
     84 H84       -73.4249   30.7268  -75.9266 H         1 UNK         0.3453 
     85 H85       -73.1696   32.4419  -75.6628 H         1 UNK         0.3453 
     86 H86       -73.0290   28.1628  -74.7861 H         1 UNK         0.2984 
     87 H87       -71.0143   28.2806  -76.6361 H         1 UNK         0.0554 
     88 H88       -68.6878   28.8138  -76.0092 H         1 UNK         0.0847 
     89 H89       -68.7868   27.1497  -76.5572 H         1 UNK         0.0847 
     90 H90       -68.6598   27.5074  -74.8350 H         1 UNK         0.0847 
     91 H91       -71.7222   26.2239  -76.3553 H         1 UNK         0.3141 
     92 H92       -71.0259   23.6118  -74.6482 H         1 UNK         0.0743 
     93 H93       -73.3459   24.8696  -73.0979 H         1 UNK         0.0784 
     94 H94       -73.2084   23.1400  -73.4212 H         1 UNK         0.0784 
     95 H95       -71.9954   23.9590  -72.4511 H         1 UNK         0.0784 
     96 H96       -73.4836   24.9167  -75.7514 H         1 UNK         0.3213 
     97 H97       -72.7996   23.5172  -78.9385 H         1 UNK         0.0855 
     98 H98       -75.1275   22.6157  -77.1654 H         1 UNK         0.0814 
     99 H99       -73.9842   21.5578  -77.9734 H         1 UNK         0.0814 
    100 H100      -75.0723   22.5547  -78.9233 H         1 UNK         0.0814 
    101 H101      -75.0908   24.9471  -78.1855 H         1 UNK         0.3105 
    102 H102      -73.6892   28.1714  -79.0016 H         1 UNK         0.0547 
    103 H103      -75.5979   27.9136  -80.5493 H         1 UNK         0.0837 
    104 H104      -74.2959   26.8305  -81.0115 H         1 UNK         0.0837 
    105 H105      -75.7125   26.1942  -80.1861 H         1 UNK         0.0837 
    106 H106      -76.0989   26.8756  -77.8001 H         1 UNK         0.3020 
    107 H107      -75.7179   28.6579  -74.8120 H         1 UNK         0.1245 
    108 H108      -78.3258   29.0018  -75.4637 H         1 UNK         0.0781 
    109 H109      -77.6607   29.4736  -76.9905 H         1 UNK         0.0781 
    110 H110      -78.9888   31.0963  -73.8972 H         1 UNK         0.0836 
    111 H111      -77.6778   31.9614  -73.1438 H         1 UNK         0.0836 
    112 H112      -77.6673   26.7910  -75.5815 H         1 UNK         0.3022 
    113 H113      -75.6296   23.9126  -75.3893 H         1 UNK         0.0747 
    114 H114      -77.4891   24.7859  -73.1299 H         1 UNK         0.0793 
    115 H115      -76.9409   23.1422  -73.4548 H         1 UNK         0.0793 
    116 H116      -75.7971   24.3651  -72.9281 H         1 UNK         0.0793 
    117 H117      -78.4122   23.9862  -75.2993 H         1 UNK         0.3047 
    118 H118      -79.4610   25.2409  -78.2550 H         1 UNK         0.0822 
    119 H119      -78.4334   23.3076  -79.4606 H         1 UNK         0.0807 
    120 H120      -80.1401   23.0275  -79.1669 H         1 UNK         0.0807 
    121 H121      -78.9273   22.2193  -78.1718 H         1 UNK         0.0807 
    122 H122      -80.6474   23.1891  -76.6681 H         1 UNK         0.2946 
    123 H123      -82.5101   24.0709  -75.2339 H         1 UNK         0.1144 
    124 H124      -81.6588   23.0439  -73.0859 H         1 UNK         0.0793 
    125 H125      -80.1229   23.8792  -73.2730 H         1 UNK         0.0793 
    126 H126      -80.5931   22.6112  -74.3958 H         1 UNK         0.0793 
    127 H127      -81.6269   26.5195  -74.2204 H         1 UNK         0.2896 
@<TRIPOS>BOND
     1    1    2 1    
     2    1   67 1    
     3    1   68 1    
     4    1   69 1    
     5    2    3 2    
     6    2    4 am   BACKBONE|DICT|INTERRES
     7    4    5 1    
     8    4   70 1    
     9    5    6 1    
    10    5   65 1    
    11    5   71 1    
    12    6    7 1    
    13    6   72 1    
    14    6   73 1    
    15    7    8 1    
    16    8    9 1    
    17    8   74 1    
    18    8   75 1    
    19    9   10 ar   
    20    9   14 ar   
    21   10   11 ar   
    22   10   76 1    
    23   11   12 ar   
    24   11   48 1    
    25   12   13 ar   
    26   12   77 1    
    27   13   14 ar   
    28   13   15 1    
    29   14   78 1    
    30   15   16 1    
    31   15   79 1    
    32   15   80 1    
    33   16   17 1    
    34   17   18 1    
    35   17   81 1    
    36   17   82 1    
    37   18   19 1    
    38   18   22 1    
    39   18   83 1    
    40   19   20 am   BACKBONE|DICT|INTERRES
    41   19   21 2    
    42   20   84 1    
    43   20   85 1    
    44   22   23 am   BACKBONE|DICT|INTERRES
    45   22   86 1    
    46   23   24 2    
    47   23   25 1    
    48   25   26 1    
    49   25   27 1    
    50   25   87 1    
    51   26   88 1    
    52   26   89 1    
    53   26   90 1    
    54   27   28 am   BACKBONE|DICT|INTERRES
    55   27   91 1    
    56   28   29 2    
    57   28   30 1    
    58   30   31 1    
    59   30   32 1    
    60   30   92 1    
    61   31   93 1    
    62   31   94 1    
    63   31   95 1    
    64   32   33 am   BACKBONE|DICT|INTERRES
    65   32   96 1    
    66   33   34 2    
    67   33   35 1    
    68   35   36 1    
    69   35   37 1    
    70   35   97 1    
    71   36   98 1    
    72   36   99 1    
    73   36  100 1    
    74   37   38 am   BACKBONE|DICT|INTERRES
    75   37  101 1    
    76   38   39 2    
    77   38   40 1    
    78   40   41 1    
    79   40   42 1    
    80   40  102 1    
    81   41  103 1    
    82   41  104 1    
    83   41  105 1    
    84   42   43 am   BACKBONE|DICT|INTERRES
    85   42  106 1    
    86   43   44 2    
    87   43   45 1    
    88   45   46 1    
    89   45   49 1    
    90   45  107 1    
    91   46   47 1    
    92   46  108 1    
    93   46  109 1    
    94   47   48 1    
    95   48  110 1    
    96   48  111 1    
    97   49   50 am   BACKBONE|DICT|INTERRES
    98   49  112 1    
    99   50   51 2    
   100   50   52 1    
   101   52   53 1    
   102   52   54 1    
   103   52  113 1    
   104   53  114 1    
   105   53  115 1    
   106   53  116 1    
   107   54   55 am   BACKBONE|DICT|INTERRES
   108   54  117 1    
   109   55   56 2    
   110   55   57 1    
   111   57   58 1    
   112   57   59 1    
   113   57  118 1    
   114   58  119 1    
   115   58  120 1    
   116   58  121 1    
   117   59   60 am   BACKBONE|DICT|INTERRES
   118   59  122 1    
   119   60   61 2    
   120   60   62 1    
   121   62   63 1    
   122   62   64 1    
   123   62  123 1    
   124   63  124 1    
   125   63  125 1    
   126   63  126 1    
   127   64   65 am   BACKBONE|DICT|INTERRES
   128   64  127 1    
   129   65   66 2    
@<TRIPOS>SUBSTRUCTURE
     1 UNK         1 GROUP             0       ****    0 ROOT    
