@<TRIPOS>MOLECULE
3R135
127   129    1
SMALL
USER_CHARGES


@<TRIPOS>ATOM
      1 CA        -84.0435   23.9609  -70.4024 C.3       0 UNK        -0.1998 
      2 C         -83.7891   24.8354  -71.6211 C.2       0 UNK         0.4909 
      3 O         -84.7266   25.1518  -72.3544 O.2       0 UNK        -0.5240 
      4 N         -82.5297   25.2349  -71.8397 N.am      1 UNK        -0.4739 
      5 CA        -82.0938   26.0168  -72.9983 C.3       1 UNK         0.0864 
      6 C6        -80.7192   26.6820  -72.7339 C.3       11 UNK        -0.0881 
      7 S7        -80.2175   27.8821  -74.0231 S.3       11 UNK        -0.2682 
      8 C8        -79.8970   29.4006  -73.0585 C.3       11 UNK         0.0289 
      9 C9        -78.4758   29.4493  -72.5060 C.ar      11 UNK        -0.0687 
     10 C10       -78.0801   28.5610  -71.5035 C.ar      11 UNK        -0.0823 
     11 C11       -76.7717   28.5644  -71.0166 C.ar      11 UNK        -0.0830 
     12 C12       -75.8631   29.5090  -71.5001 C.ar      11 UNK        -0.1021 
     13 C13       -76.2520   30.4369  -72.4728 C.ar      11 UNK        -0.0753 
     14 C14       -77.5574   30.3941  -72.9787 C.ar      11 UNK        -0.0933 
     15 C15       -75.2715   31.5070  -72.9385 C.3       11 UNK         0.0166 
     16 S16       -74.9507   31.4309  -74.7287 S.3       11 UNK        -0.2615 
     17 C17       -73.4251   32.4246  -74.8668 C.3       11 UNK        -0.0865 
     18 CA        -72.1812   31.5713  -75.2377 C.3       10 UNK         0.0862 
     19 C         -70.9358   32.4817  -75.4511 C.2       10 UNK         0.5551 
     20 N         -69.8834   32.3716  -74.6493 N.am      10 UNK        -0.7319 
     21 O         -70.9273   33.3043  -76.3636 O.2       10 UNK        -0.5018 
     22 N         -71.9865   30.4521  -74.2990 N.am      10 UNK        -0.4509 
     23 C         -71.2447   29.3620  -74.5335 C.2       10 UNK         0.4899 
     24 O         -70.5746   29.2031  -75.5551 O.2       10 UNK        -0.4839 
     25 CA        -71.2342   28.2755  -73.4382 C.3       9 UNK         0.0222 
     26 CB        -72.2578   28.5149  -72.3070 C.3       9 UNK        -0.1966 
     27 N         -71.5033   26.9652  -74.0248 N.am      9 UNK        -0.4218 
     28 C         -70.5936   26.1095  -74.5074 C.2       9 UNK         0.5020 
     29 O         -69.3764   26.2980  -74.4721 O.2       9 UNK        -0.5274 
     30 CA        -71.1368   24.8106  -75.1241 C.3       8 UNK         0.0270 
     31 CB        -71.4858   23.7907  -74.0266 C.3       8 UNK        -0.1976 
     32 N         -72.3201   25.0629  -75.9493 N.am      8 UNK        -0.4313 
     33 C         -72.2878   25.3305  -77.2620 C.2       8 UNK         0.5041 
     34 O         -71.2555   25.3321  -77.9344 O.2       8 UNK        -0.5577 
     35 CA        -73.6286   25.6364  -77.9573 C.3       7 UNK         0.0284 
     36 CB        -74.2151   24.3567  -78.5748 C.3       7 UNK        -0.1958 
     37 N         -74.6245   26.2422  -77.0711 N.am      7 UNK        -0.4454 
     38 C         -74.5287   27.4708  -76.5442 C.2       7 UNK         0.5089 
     39 O         -73.6303   28.2635  -76.8208 O.2       7 UNK        -0.5125 
     40 CA        -75.5992   27.8755  -75.5138 C.3       6 UNK         0.0408 
     41 CB        -76.7593   28.5987  -76.2131 C.3       6 UNK        -0.1791 
     42 N         -76.1167   26.7623  -74.7085 N.am      6 UNK        -0.4762 
     43 C         -75.3649   25.9908  -73.9073 C.2       6 UNK         0.5007 
     44 O         -74.1409   26.0894  -73.8297 O.2       6 UNK        -0.5032 
     45 CA        -76.0790   24.8790  -73.1109 C.3       5 UNK         0.0783 
     46 C46       -76.6690   25.3637  -71.7636 C.3       11 UNK        -0.0857 
     47 S47       -75.4427   26.1375  -70.6455 S.3       11 UNK        -0.2512 
     48 C48       -76.3550   27.5570  -69.9528 C.3       11 UNK         0.0225 
     49 N         -77.0973   24.2301  -73.9402 N.am      5 UNK        -0.4615 
     50 C         -76.8152   23.3818  -74.9372 C.2       4 UNK         0.5053 
     51 O         -75.6799   22.9882  -75.2049 O.2       4 UNK        -0.5105 
     52 CA        -78.0001   22.9334  -75.8040 C.3       4 UNK         0.0263 
     53 CB        -78.8480   21.8770  -75.0776 C.3       4 UNK        -0.1981 
     54 N         -78.8496   24.0538  -76.2208 N.am      4 UNK        -0.4224 
     55 C         -78.4622   25.0219  -77.0673 C.2       3 UNK         0.4895 
     56 O         -77.3128   25.1103  -77.4990 O.2       3 UNK        -0.5091 
     57 CA        -79.4910   26.0907  -77.4962 C.3       3 UNK         0.0250 
     58 CB        -79.4438   26.3589  -79.0146 C.3       3 UNK        -0.1996 
     59 N         -80.8633   25.8484  -77.0431 N.am      3 UNK        -0.4254 
     60 C         -81.6912   24.8421  -77.3637 C.2       2 UNK         0.5004 
     61 O         -81.4393   23.9825  -78.2087 O.2       2 UNK        -0.5226 
     62 CA        -83.0069   24.7720  -76.5574 C.3       2 UNK         0.0269 
     63 CB        -83.5322   23.3271  -76.4155 C.3       2 UNK        -0.1926 
     64 N         -82.9168   25.4206  -75.2363 N.am      2 UNK        -0.4687 
     65 C         -82.0643   25.1125  -74.2450 C.2       1 UNK         0.5165 
     66 O         -81.2420   24.1947  -74.3033 O.2       1 UNK        -0.5079 
     67 H67       -84.4598   23.0020  -70.7096 H         1 UNK         0.0900 
     68 H68       -84.7570   24.4447  -69.7359 H         1 UNK         0.0900 
     69 H69       -83.1301   23.7694  -69.8396 H         1 UNK         0.0900 
     70 H70       -81.7964   24.9168  -71.2223 H         1 UNK         0.2959 
     71 H71       -82.8232   26.8148  -73.1570 H         1 UNK         0.1079 
     72 H72       -79.9337   25.9320  -72.6271 H         1 UNK         0.0837 
     73 H73       -80.7742   27.1985  -71.7759 H         1 UNK         0.0837 
     74 H74       -80.0726   30.2571  -73.7111 H         1 UNK         0.0685 
     75 H75       -80.6172   29.4923  -72.2444 H         1 UNK         0.0685 
     76 H76       -78.7848   27.8470  -71.1073 H         1 UNK         0.1434 
     77 H77       -74.8577   29.5277  -71.1032 H         1 UNK         0.1329 
     78 H78       -77.8558   31.1038  -73.7381 H         1 UNK         0.1335 
     79 H79       -75.6696   32.4915  -72.6893 H         1 UNK         0.0680 
     80 H80       -74.3271   31.4107  -72.4010 H         1 UNK         0.0680 
     81 H81       -73.2522   32.9739  -73.9395 H         1 UNK         0.1032 
     82 H82       -73.6018   33.1836  -75.6315 H         1 UNK         0.1032 
     83 H83       -72.3835   31.1221  -76.2123 H         1 UNK         0.0461 
     84 H84       -69.8800   31.6937  -73.9046 H         1 UNK         0.3453 
     85 H85       -69.0822   32.9645  -74.7987 H         1 UNK         0.3453 
     86 H86       -72.5056   30.5054  -73.4371 H         1 UNK         0.2984 
     87 H87       -70.2371   28.2751  -72.9935 H         1 UNK         0.0554 
     88 H88       -72.2257   27.7083  -71.5739 H         1 UNK         0.0847 
     89 H89       -73.2785   28.5606  -72.6902 H         1 UNK         0.0847 
     90 H90       -72.0533   29.4391  -71.7654 H         1 UNK         0.0847 
     91 H91       -72.4848   26.6952  -74.0695 H         1 UNK         0.3141 
     92 H92       -70.3472   24.3769  -75.7419 H         1 UNK         0.0743 
     93 H93       -72.2663   24.1583  -73.3594 H         1 UNK         0.0784 
     94 H94       -71.8305   22.8500  -74.4566 H         1 UNK         0.0784 
     95 H95       -70.6124   23.5662  -73.4130 H         1 UNK         0.0784 
     96 H96       -73.2063   25.1322  -75.4629 H         1 UNK         0.3213 
     97 H97       -73.4243   26.3432  -78.7645 H         1 UNK         0.0855 
     98 H98       -73.4985   23.8804  -79.2452 H         1 UNK         0.0814 
     99 H99       -75.1100   24.5730  -79.1588 H         1 UNK         0.0814 
    100 H100      -74.4842   23.6272  -77.8095 H         1 UNK         0.0814 
    101 H101      -75.4557   25.6935  -76.8730 H         1 UNK         0.3105 
    102 H102      -75.1324   28.5685  -74.8127 H         1 UNK         0.0547 
    103 H103      -76.4144   29.5324  -76.6587 H         1 UNK         0.0837 
    104 H104      -77.1751   27.9987  -77.0209 H         1 UNK         0.0837 
    105 H105      -77.5599   28.8498  -75.5179 H         1 UNK         0.0837 
    106 H106      -77.1133   26.6103  -74.7301 H         1 UNK         0.3020 
    107 H107      -75.3164   24.1321  -72.8752 H         1 UNK         0.1245 
    108 H108      -77.1040   24.5164  -71.2314 H         1 UNK         0.0781 
    109 H109      -77.4953   26.0445  -71.9515 H         1 UNK         0.0781 
    110 H110      -75.7237   28.0516  -69.2131 H         1 UNK         0.0836 
    111 H111      -77.2257   27.1898  -69.4072 H         1 UNK         0.0836 
    112 H112      -78.0599   24.4903  -73.7847 H         1 UNK         0.3022 
    113 H113      -77.5920   22.4743  -76.7073 H         1 UNK         0.0747 
    114 H114      -79.6547   21.5120  -75.7136 H         1 UNK         0.0793 
    115 H115      -78.2407   21.0153  -74.7973 H         1 UNK         0.0793 
    116 H116      -79.2964   22.2709  -74.1647 H         1 UNK         0.0793 
    117 H117      -79.7961   24.0664  -75.8572 H         1 UNK         0.3047 
    118 H118      -79.1932   27.0089  -76.9918 H         1 UNK         0.0822 
    119 H119      -80.1489   27.1385  -79.3026 H         1 UNK         0.0807 
    120 H120      -79.6772   25.4638  -79.5917 H         1 UNK         0.0807 
    121 H121      -78.4520   26.6921  -79.3232 H         1 UNK         0.0807 
    122 H122      -81.1876   26.4845  -76.3273 H         1 UNK         0.2946 
    123 H123      -83.7414   25.3370  -77.1341 H         1 UNK         0.1144 
    124 H124      -83.7404   22.8875  -77.3917 H         1 UNK         0.0793 
    125 H125      -84.4603   23.2970  -75.8445 H         1 UNK         0.0793 
    126 H126      -82.8103   22.6800  -75.9161 H         1 UNK         0.0793 
    127 H127      -83.5597   26.1872  -75.0874 H         1 UNK         0.2896 
@<TRIPOS>BOND
     1    1    2 1    
     2    1   67 1    
     3    1   68 1    
     4    1   69 1    
     5    2    3 2    
     6    2    4 am   BACKBONE|DICT|INTERRES
     7    4    5 1    
     8    4   70 1    
     9    5    6 1    
    10    5   65 1    
    11    5   71 1    
    12    6    7 1    
    13    6   72 1    
    14    6   73 1    
    15    7    8 1    
    16    8    9 1    
    17    8   74 1    
    18    8   75 1    
    19    9   10 ar   
    20    9   14 ar   
    21   10   11 ar   
    22   10   76 1    
    23   11   12 ar   
    24   11   48 1    
    25   12   13 ar   
    26   12   77 1    
    27   13   14 ar   
    28   13   15 1    
    29   14   78 1    
    30   15   16 1    
    31   15   79 1    
    32   15   80 1    
    33   16   17 1    
    34   17   18 1    
    35   17   81 1    
    36   17   82 1    
    37   18   19 1    
    38   18   22 1    
    39   18   83 1    
    40   19   20 am   BACKBONE|DICT|INTERRES
    41   19   21 2    
    42   20   84 1    
    43   20   85 1    
    44   22   23 am   BACKBONE|DICT|INTERRES
    45   22   86 1    
    46   23   24 2    
    47   23   25 1    
    48   25   26 1    
    49   25   27 1    
    50   25   87 1    
    51   26   88 1    
    52   26   89 1    
    53   26   90 1    
    54   27   28 am   BACKBONE|DICT|INTERRES
    55   27   91 1    
    56   28   29 2    
    57   28   30 1    
    58   30   31 1    
    59   30   32 1    
    60   30   92 1    
    61   31   93 1    
    62   31   94 1    
    63   31   95 1    
    64   32   33 am   BACKBONE|DICT|INTERRES
    65   32   96 1    
    66   33   34 2    
    67   33   35 1    
    68   35   36 1    
    69   35   37 1    
    70   35   97 1    
    71   36   98 1    
    72   36   99 1    
    73   36  100 1    
    74   37   38 am   BACKBONE|DICT|INTERRES
    75   37  101 1    
    76   38   39 2    
    77   38   40 1    
    78   40   41 1    
    79   40   42 1    
    80   40  102 1    
    81   41  103 1    
    82   41  104 1    
    83   41  105 1    
    84   42   43 am   BACKBONE|DICT|INTERRES
    85   42  106 1    
    86   43   44 2    
    87   43   45 1    
    88   45   46 1    
    89   45   49 1    
    90   45  107 1    
    91   46   47 1    
    92   46  108 1    
    93   46  109 1    
    94   47   48 1    
    95   48  110 1    
    96   48  111 1    
    97   49   50 am   BACKBONE|DICT|INTERRES
    98   49  112 1    
    99   50   51 2    
   100   50   52 1    
   101   52   53 1    
   102   52   54 1    
   103   52  113 1    
   104   53  114 1    
   105   53  115 1    
   106   53  116 1    
   107   54   55 am   BACKBONE|DICT|INTERRES
   108   54  117 1    
   109   55   56 2    
   110   55   57 1    
   111   57   58 1    
   112   57   59 1    
   113   57  118 1    
   114   58  119 1    
   115   58  120 1    
   116   58  121 1    
   117   59   60 am   BACKBONE|DICT|INTERRES
   118   59  122 1    
   119   60   61 2    
   120   60   62 1    
   121   62   63 1    
   122   62   64 1    
   123   62  123 1    
   124   63  124 1    
   125   63  125 1    
   126   63  126 1    
   127   64   65 am   BACKBONE|DICT|INTERRES
   128   64  127 1    
   129   65   66 2    
@<TRIPOS>SUBSTRUCTURE
     1 UNK         1 GROUP             0       ****    0 ROOT    
