@<TRIPOS>MOLECULE
3R135
127   129    1
SMALL
USER_CHARGES


@<TRIPOS>ATOM
      1 CA        -77.3823   25.6095  -72.5814 C.3       0 UNK        -0.1998 
      2 C         -78.6394   25.1253  -71.8748 C.2       0 UNK         0.4909 
      3 O         -78.7341   23.9498  -71.5208 O.2       0 UNK        -0.5240 
      4 N         -79.6025   26.0283  -71.6553 N.am      1 UNK        -0.4739 
      5 CA        -80.8972   25.7166  -71.0365 C.3       1 UNK         0.0864 
      6 C6        -81.5128   26.9102  -70.2588 C.3       11 UNK        -0.0881 
      7 S7        -80.3507   27.7150  -69.1036 S.3       11 UNK        -0.2682 
      8 C8        -80.1400   29.3513  -69.8798 C.3       11 UNK         0.0289 
      9 C9        -79.3154   29.2802  -71.1583 C.ar      11 UNK        -0.0687 
     10 C10       -79.9399   29.1839  -72.4062 C.ar      11 UNK        -0.0823 
     11 C11       -79.1812   29.1216  -73.5800 C.ar      11 UNK        -0.0830 
     12 C12       -77.7863   29.1978  -73.5004 C.ar      11 UNK        -0.1021 
     13 C13       -77.1521   29.2972  -72.2586 C.ar      11 UNK        -0.0753 
     14 C14       -77.9209   29.3289  -71.0919 C.ar      11 UNK        -0.0933 
     15 C15       -75.6379   29.3821  -72.1675 C.3       11 UNK         0.0166 
     16 S16       -75.1026   31.1178  -72.0921 S.3       11 UNK        -0.2615 
     17 C17       -73.3821   30.9530  -71.5084 C.3       11 UNK        -0.0865 
     18 CA        -72.3445   31.3751  -72.5784 C.3       10 UNK         0.0862 
     19 C         -70.9272   31.4583  -71.9458 C.2       10 UNK         0.5551 
     20 N         -70.4585   32.6565  -71.6253 N.am      10 UNK        -0.7319 
     21 O         -70.2774   30.4456  -71.6961 O.2       10 UNK        -0.5018 
     22 N         -72.3951   30.4886  -73.7507 N.am      10 UNK        -0.4509 
     23 C         -71.6936   30.6529  -74.8793 C.2       10 UNK         0.4899 
     24 O         -70.9761   31.6311  -75.0957 O.2       10 UNK        -0.4839 
     25 CA        -71.8398   29.5707  -75.9707 C.3       9 UNK         0.0222 
     26 CB        -70.5366   29.3715  -76.7732 C.3       9 UNK        -0.1966 
     27 N         -72.3565   28.2745  -75.5091 N.am      9 UNK        -0.4218 
     28 C         -71.8021   27.4374  -74.6171 C.2       9 UNK         0.5020 
     29 O         -70.7949   27.6907  -73.9569 O.2       9 UNK        -0.5274 
     30 CA        -72.4757   26.0626  -74.4626 C.3       8 UNK         0.0270 
     31 CB        -73.8052   26.1735  -73.6960 C.3       8 UNK        -0.1976 
     32 N         -72.7008   25.4117  -75.7556 N.am      8 UNK        -0.4313 
     33 C         -71.7322   25.0259  -76.6012 C.2       8 UNK         0.5041 
     34 O         -70.5289   25.0828  -76.3451 O.2       8 UNK        -0.5577 
     35 CA        -72.1795   24.5060  -77.9755 C.3       7 UNK         0.0284 
     36 CB        -72.5513   23.0163  -77.9067 C.3       7 UNK        -0.1958 
     37 N         -73.3079   25.2818  -78.4939 N.am      7 UNK        -0.4454 
     38 C         -73.1845   26.4677  -79.1074 C.2       7 UNK         0.5089 
     39 O         -72.1030   26.9885  -79.3797 O.2       7 UNK        -0.5125 
     40 CA        -74.4829   27.2046  -79.4846 C.3       6 UNK         0.0408 
     41 CB        -74.8652   26.9023  -80.9421 C.3       6 UNK        -0.1791 
     42 N         -75.6152   26.8836  -78.6112 N.am      6 UNK        -0.4762 
     43 C         -75.7215   27.2651  -77.3299 C.2       6 UNK         0.5007 
     44 O         -74.8744   27.9371  -76.7418 O.2       6 UNK        -0.5032 
     45 CA        -76.9618   26.7691  -76.5606 C.3       5 UNK         0.0783 
     46 C46       -78.1516   27.7313  -76.7883 C.3       11 UNK        -0.0857 
     47 S47       -79.5768   27.3689  -75.7040 S.3       11 UNK        -0.2512 
     48 C48       -79.8768   28.9935  -74.9288 C.3       11 UNK         0.0225 
     49 N         -77.3093   25.3779  -76.8807 N.am      5 UNK        -0.4615 
     50 C         -76.5035   24.3166  -76.7281 C.2       4 UNK         0.5053 
     51 O         -75.3318   24.4112  -76.3586 O.2       4 UNK        -0.5105 
     52 CA        -77.0872   22.9286  -77.0757 C.3       4 UNK         0.0263 
     53 CB        -76.3911   21.7905  -76.2985 C.3       4 UNK        -0.1981 
     54 N         -78.5486   22.8335  -76.9288 N.am      4 UNK        -0.4224 
     55 C         -79.2475   23.0360  -75.8030 C.2       3 UNK         0.4895 
     56 O         -78.7440   23.3399  -74.7212 O.2       3 UNK        -0.5091 
     57 CA        -80.7674   22.8931  -75.8953 C.3       3 UNK         0.0250 
     58 CB        -81.2326   21.5169  -75.3879 C.3       3 UNK        -0.1996 
     59 N         -81.3382   23.9548  -75.0777 N.am      3 UNK        -0.4254 
     60 C         -82.5339   24.5249  -75.2464 C.2       2 UNK         0.5004 
     61 O         -83.3599   24.1384  -76.0752 O.2       2 UNK        -0.5226 
     62 CA        -82.8438   25.7635  -74.3839 C.3       2 UNK         0.0269 
     63 CB        -84.3276   25.8415  -73.9635 C.3       2 UNK        -0.1926 
     64 N         -81.9452   25.9439  -73.2324 N.am      2 UNK        -0.4687 
     65 C         -81.8918   25.2192  -72.1019 C.2       1 UNK         0.5165 
     66 O         -82.5798   24.2228  -71.8799 O.2       1 UNK        -0.5079 
     67 H67       -77.6087   26.4261  -73.2638 H         1 UNK         0.0900 
     68 H68       -76.6456   25.9540  -71.8564 H         1 UNK         0.0900 
     69 H69       -76.9404   24.8032  -73.1670 H         1 UNK         0.0900 
     70 H70       -79.4424   26.9978  -71.8959 H         1 UNK         0.2959 
     71 H71       -80.7541   24.9046  -70.3195 H         1 UNK         0.1079 
     72 H72       -82.3656   26.5619  -69.6728 H         1 UNK         0.0837 
     73 H73       -81.9209   27.6597  -70.9376 H         1 UNK         0.0837 
     74 H74       -79.6479   30.0138  -69.1661 H         1 UNK         0.0685 
     75 H75       -81.1172   29.7954  -70.0756 H         1 UNK         0.0685 
     76 H76       -81.0194   29.1621  -72.4635 H         1 UNK         0.1434 
     77 H77       -77.1911   29.1778  -74.4020 H         1 UNK         0.1329 
     78 H78       -77.4326   29.4088  -70.1301 H         1 UNK         0.1335 
     79 H79       -75.2967   28.8462  -71.2803 H         1 UNK         0.0680 
     80 H80       -75.1733   28.8960  -73.0262 H         1 UNK         0.0680 
     81 H81       -73.1893   29.9339  -71.1676 H         1 UNK         0.1032 
     82 H82       -73.2878   31.5837  -70.6219 H         1 UNK         0.1032 
     83 H83       -72.6137   32.3734  -72.9301 H         1 UNK         0.0461 
     84 H84       -70.9892   33.4921  -71.8175 H         1 UNK         0.3453 
     85 H85       -69.5488   32.7291  -71.1968 H         1 UNK         0.3453 
     86 H86       -72.9495   29.6530  -73.6551 H         1 UNK         0.2984 
     87 H87       -72.5921   29.9515  -76.6629 H         1 UNK         0.0554 
     88 H88       -70.2240   30.2978  -77.2567 H         1 UNK         0.0847 
     89 H89       -70.6653   28.6269  -77.5590 H         1 UNK         0.0847 
     90 H90       -69.7160   29.0446  -76.1338 H         1 UNK         0.0847 
     91 H91       -73.2238   27.9853  -75.9603 H         1 UNK         0.3141 
     92 H92       -71.8035   25.4252  -73.8844 H         1 UNK         0.0743 
     93 H93       -73.6559   26.6361  -72.7195 H         1 UNK         0.0784 
     94 H94       -74.5384   26.7728  -74.2351 H         1 UNK         0.0784 
     95 H95       -74.2438   25.1901  -73.5245 H         1 UNK         0.0784 
     96 H96       -73.6673   25.2364  -76.0208 H         1 UNK         0.3213 
     97 H97       -71.3365   24.6076  -78.6630 H         1 UNK         0.0855 
     98 H98       -73.3539   22.8303  -77.1944 H         1 UNK         0.0814 
     99 H99       -71.6951   22.4190  -77.5905 H         1 UNK         0.0814 
    100 H100      -72.8683   22.6391  -78.8790 H         1 UNK         0.0814 
    101 H101      -74.2341   24.9507  -78.2618 H         1 UNK         0.3105 
    102 H102      -74.2864   28.2758  -79.4009 H         1 UNK         0.0547 
    103 H103      -74.0499   27.1593  -81.6200 H         1 UNK         0.0837 
    104 H104      -75.0909   25.8457  -81.0915 H         1 UNK         0.0837 
    105 H105      -75.7354   27.4804  -81.2533 H         1 UNK         0.0837 
    106 H106      -76.3573   26.3255  -79.0090 H         1 UNK         0.3020 
    107 H107      -76.6989   26.7951  -75.5017 H         1 UNK         0.1245 
    108 H108      -78.4941   27.6777  -77.8234 H         1 UNK         0.0781 
    109 H109      -77.8360   28.7649  -76.6366 H         1 UNK         0.0781 
    110 H110      -80.9547   29.1149  -74.8111 H         1 UNK         0.0836 
    111 H111      -79.5634   29.8042  -75.5877 H         1 UNK         0.0836 
    112 H112      -78.2613   25.2177  -77.1743 H         1 UNK         0.3022 
    113 H113      -76.8782   22.7764  -78.1355 H         1 UNK         0.0747 
    114 H114      -76.8163   20.8192  -76.5506 H         1 UNK         0.0793 
    115 H115      -76.4791   21.9255  -75.2198 H         1 UNK         0.0793 
    116 H116      -75.3278   21.7444  -76.5322 H         1 UNK         0.0793 
    117 H117      -79.0554   22.5934  -77.7705 H         1 UNK         0.3047 
    118 H118      -81.0794   23.0275  -76.9334 H         1 UNK         0.0822 
    119 H119      -82.3160   21.4153  -75.4529 H         1 UNK         0.0807 
    120 H120      -80.9432   21.3541  -74.3487 H         1 UNK         0.0807 
    121 H121      -80.7943   20.7130  -75.9806 H         1 UNK         0.0807 
    122 H122      -80.7011   24.3359  -74.3889 H         1 UNK         0.2946 
    123 H123      -82.6541   26.6159  -75.0386 H         1 UNK         0.1144 
    124 H124      -84.9792   25.8876  -74.8370 H         1 UNK         0.0793 
    125 H125      -84.5261   26.7324  -73.3678 H         1 UNK         0.0793 
    126 H126      -84.6326   24.9715  -73.3817 H         1 UNK         0.0793 
    127 H127      -81.2885   26.7057  -73.3227 H         1 UNK         0.2896 
@<TRIPOS>BOND
     1    1    2 1    
     2    1   67 1    
     3    1   68 1    
     4    1   69 1    
     5    2    3 2    
     6    2    4 am   BACKBONE|DICT|INTERRES
     7    4    5 1    
     8    4   70 1    
     9    5    6 1    
    10    5   65 1    
    11    5   71 1    
    12    6    7 1    
    13    6   72 1    
    14    6   73 1    
    15    7    8 1    
    16    8    9 1    
    17    8   74 1    
    18    8   75 1    
    19    9   10 ar   
    20    9   14 ar   
    21   10   11 ar   
    22   10   76 1    
    23   11   12 ar   
    24   11   48 1    
    25   12   13 ar   
    26   12   77 1    
    27   13   14 ar   
    28   13   15 1    
    29   14   78 1    
    30   15   16 1    
    31   15   79 1    
    32   15   80 1    
    33   16   17 1    
    34   17   18 1    
    35   17   81 1    
    36   17   82 1    
    37   18   19 1    
    38   18   22 1    
    39   18   83 1    
    40   19   20 am   BACKBONE|DICT|INTERRES
    41   19   21 2    
    42   20   84 1    
    43   20   85 1    
    44   22   23 am   BACKBONE|DICT|INTERRES
    45   22   86 1    
    46   23   24 2    
    47   23   25 1    
    48   25   26 1    
    49   25   27 1    
    50   25   87 1    
    51   26   88 1    
    52   26   89 1    
    53   26   90 1    
    54   27   28 am   BACKBONE|DICT|INTERRES
    55   27   91 1    
    56   28   29 2    
    57   28   30 1    
    58   30   31 1    
    59   30   32 1    
    60   30   92 1    
    61   31   93 1    
    62   31   94 1    
    63   31   95 1    
    64   32   33 am   BACKBONE|DICT|INTERRES
    65   32   96 1    
    66   33   34 2    
    67   33   35 1    
    68   35   36 1    
    69   35   37 1    
    70   35   97 1    
    71   36   98 1    
    72   36   99 1    
    73   36  100 1    
    74   37   38 am   BACKBONE|DICT|INTERRES
    75   37  101 1    
    76   38   39 2    
    77   38   40 1    
    78   40   41 1    
    79   40   42 1    
    80   40  102 1    
    81   41  103 1    
    82   41  104 1    
    83   41  105 1    
    84   42   43 am   BACKBONE|DICT|INTERRES
    85   42  106 1    
    86   43   44 2    
    87   43   45 1    
    88   45   46 1    
    89   45   49 1    
    90   45  107 1    
    91   46   47 1    
    92   46  108 1    
    93   46  109 1    
    94   47   48 1    
    95   48  110 1    
    96   48  111 1    
    97   49   50 am   BACKBONE|DICT|INTERRES
    98   49  112 1    
    99   50   51 2    
   100   50   52 1    
   101   52   53 1    
   102   52   54 1    
   103   52  113 1    
   104   53  114 1    
   105   53  115 1    
   106   53  116 1    
   107   54   55 am   BACKBONE|DICT|INTERRES
   108   54  117 1    
   109   55   56 2    
   110   55   57 1    
   111   57   58 1    
   112   57   59 1    
   113   57  118 1    
   114   58  119 1    
   115   58  120 1    
   116   58  121 1    
   117   59   60 am   BACKBONE|DICT|INTERRES
   118   59  122 1    
   119   60   61 2    
   120   60   62 1    
   121   62   63 1    
   122   62   64 1    
   123   62  123 1    
   124   63  124 1    
   125   63  125 1    
   126   63  126 1    
   127   64   65 am   BACKBONE|DICT|INTERRES
   128   64  127 1    
   129   65   66 2    
@<TRIPOS>SUBSTRUCTURE
     1 UNK         1 GROUP             0       ****    0 ROOT    
