@<TRIPOS>MOLECULE
3R135
127   129    1
SMALL
USER_CHARGES


@<TRIPOS>ATOM
      1 CA        -84.3179   25.4099  -75.7770 C.3       0 UNK        -0.1998 
      2 C         -83.3053   26.5023  -75.4695 C.2       0 UNK         0.4909 
      3 O         -82.6582   27.0138  -76.3843 O.2       0 UNK        -0.5240 
      4 N         -83.1579   26.8655  -74.1881 N.am      1 UNK        -0.4739 
      5 CA        -82.1737   27.8424  -73.7116 C.3       1 UNK         0.0864 
      6 C6        -82.4318   28.2316  -72.2359 C.3       11 UNK        -0.0881 
      7 S7        -81.6836   29.8376  -71.7918 S.3       11 UNK        -0.2682 
      8 C8        -80.7231   29.4220  -70.3006 C.3       11 UNK         0.0289 
      9 C9        -79.3324   28.9016  -70.6360 C.ar      11 UNK        -0.0687 
     10 C10       -79.1178   27.5395  -70.8549 C.ar      11 UNK        -0.0823 
     11 C11       -77.8417   27.0475  -71.1475 C.ar      11 UNK        -0.0830 
     12 C12       -76.7647   27.9433  -71.2103 C.ar      11 UNK        -0.1021 
     13 C13       -76.9627   29.3074  -70.9690 C.ar      11 UNK        -0.0753 
     14 C14       -78.2486   29.7805  -70.6931 C.ar      11 UNK        -0.0933 
     15 C15       -75.7864   30.2711  -70.9424 C.3       11 UNK         0.0166 
     16 S16       -75.7057   31.3217  -72.4264 S.3       11 UNK        -0.2615 
     17 C17       -74.8196   30.2558  -73.6105 C.3       11 UNK        -0.0865 
     18 CA        -73.2754   30.4392  -73.5349 C.3       10 UNK         0.0862 
     19 C         -72.6185   29.3729  -72.6206 C.2       10 UNK         0.5551 
     20 N         -72.5038   28.1332  -73.0805 N.am      10 UNK        -0.7319 
     21 O         -72.2108   29.6706  -71.5009 O.2       10 UNK        -0.5018 
     22 N         -72.6640   30.4276  -74.8696 N.am      10 UNK        -0.4509 
     23 C         -71.5713   31.1205  -75.2184 C.2       10 UNK         0.4899 
     24 O         -71.0311   31.9570  -74.4923 O.2       10 UNK        -0.4839 
     25 CA        -70.9896   30.8312  -76.6201 C.3       9 UNK         0.0222 
     26 CB        -69.5553   31.3726  -76.8044 C.3       9 UNK        -0.1966 
     27 N         -71.0690   29.4114  -76.9877 N.am      9 UNK        -0.4218 
     28 C         -70.5166   28.3712  -76.3419 C.2       9 UNK         0.5020 
     29 O         -69.7285   28.4865  -75.4018 O.2       9 UNK        -0.5274 
     30 CA        -70.9345   26.9632  -76.8215 C.3       8 UNK         0.0270 
     31 CB        -70.7958   25.8977  -75.7137 C.3       8 UNK        -0.1976 
     32 N         -72.2810   26.8897  -77.4100 N.am      8 UNK        -0.4313 
     33 C         -73.4399   27.2881  -76.8648 C.2       8 UNK         0.5041 
     34 O         -73.5345   27.8625  -75.7796 O.2       8 UNK        -0.5577 
     35 CA        -74.7143   26.9982  -77.6686 C.3       7 UNK         0.0284 
     36 CB        -74.6348   27.4675  -79.1367 C.3       7 UNK        -0.1958 
     37 N         -75.1044   25.5935  -77.5452 N.am      7 UNK        -0.4454 
     38 C         -74.4564   24.5079  -77.9939 C.2       7 UNK         0.5089 
     39 O         -73.4687   24.5516  -78.7308 O.2       7 UNK        -0.5125 
     40 CA        -75.0038   23.1470  -77.5183 C.3       6 UNK         0.0408 
     41 CB        -73.9819   22.0010  -77.6728 C.3       6 UNK        -0.1791 
     42 N         -75.5378   23.1961  -76.1506 N.am      6 UNK        -0.4762 
     43 C         -74.8764   23.5048  -75.0188 C.2       6 UNK         0.5007 
     44 O         -73.6639   23.7145  -74.9792 O.2       6 UNK        -0.5032 
     45 CA        -75.6996   23.6044  -73.7135 C.3       5 UNK         0.0783 
     46 C46       -75.3780   24.9054  -72.9253 C.3       11 UNK        -0.0857 
     47 S47       -76.0262   24.8450  -71.2197 S.3       11 UNK        -0.2512 
     48 C48       -77.7027   25.5479  -71.4065 C.3       11 UNK         0.0225 
     49 N         -77.1312   23.5186  -74.0102 N.am      5 UNK        -0.4615 
     50 C         -77.9246   22.4602  -73.8103 C.2       4 UNK         0.5053 
     51 O         -77.5443   21.4055  -73.3031 O.2       4 UNK        -0.5105 
     52 CA        -79.3923   22.5945  -74.2658 C.3       4 UNK         0.0263 
     53 CB        -80.3156   22.7995  -73.0538 C.3       4 UNK        -0.1981 
     54 N         -79.6069   23.6850  -75.2255 N.am      4 UNK        -0.4224 
     55 C         -79.1614   23.6748  -76.4929 C.2       3 UNK         0.4895 
     56 O         -78.5751   22.7176  -76.9976 O.2       3 UNK        -0.5091 
     57 CA        -79.3245   24.9653  -77.3185 C.3       3 UNK         0.0250 
     58 CB        -80.6143   24.9096  -78.1506 C.3       3 UNK        -0.1996 
     59 N         -79.3087   26.1886  -76.5085 N.am      3 UNK        -0.4254 
     60 C         -78.2828   26.5733  -75.7330 C.2       2 UNK         0.5004 
     61 O         -77.2204   25.9557  -75.6725 O.2       2 UNK        -0.5226 
     62 CA        -78.4770   27.8042  -74.8291 C.3       2 UNK         0.0269 
     63 CB        -77.7872   29.0359  -75.4328 C.3       2 UNK        -0.1926 
     64 N         -79.8751   28.1285  -74.5262 N.am      2 UNK        -0.4687 
     65 C         -80.7456   27.3044  -73.9265 C.2       1 UNK         0.5165 
     66 O         -80.4717   26.1523  -73.5780 O.2       1 UNK        -0.5079 
     67 H67       -84.8424   25.0765  -74.8817 H         1 UNK         0.0900 
     68 H68       -83.8173   24.5483  -76.2179 H         1 UNK         0.0900 
     69 H69       -85.0587   25.7749  -76.4880 H         1 UNK         0.0900 
     70 H70       -83.6921   26.3922  -73.4735 H         1 UNK         0.2959 
     71 H71       -82.3038   28.7358  -74.3272 H         1 UNK         0.1079 
     72 H72       -83.5045   28.3384  -72.0660 H         1 UNK         0.0837 
     73 H73       -82.1070   27.4428  -71.5555 H         1 UNK         0.0837 
     74 H74       -80.6382   30.3197  -69.6863 H         1 UNK         0.0685 
     75 H75       -81.2671   28.6975  -69.6926 H         1 UNK         0.0685 
     76 H76       -79.9530   26.8546  -70.8063 H         1 UNK         0.1434 
     77 H77       -75.7685   27.5865  -71.4306 H         1 UNK         0.1329 
     78 H78       -78.4015   30.8351  -70.5079 H         1 UNK         0.1335 
     79 H79       -75.8821   30.9191  -70.0699 H         1 UNK         0.0680 
     80 H80       -74.8489   29.7325  -70.8075 H         1 UNK         0.0680 
     81 H81       -75.1274   29.2146  -73.4923 H         1 UNK         0.1032 
     82 H82       -75.1785   30.5463  -74.5988 H         1 UNK         0.1032 
     83 H83       -73.0717   31.4152  -73.0892 H         1 UNK         0.0461 
     84 H84       -72.0700   27.4275  -72.5088 H         1 UNK         0.3453 
     85 H85       -72.8387   27.9082  -74.0138 H         1 UNK         0.3453 
     86 H86       -72.9819   29.6769  -75.4756 H         1 UNK         0.2984 
     87 H87       -71.6312   31.3618  -77.3250 H         1 UNK         0.0554 
     88 H88       -69.1776   31.1650  -77.8054 H         1 UNK         0.0847 
     89 H89       -68.8609   30.9356  -76.0863 H         1 UNK         0.0847 
     90 H90       -69.5250   32.4541  -76.6665 H         1 UNK         0.0847 
     91 H91       -71.6914   29.1939  -77.7532 H         1 UNK         0.3141 
     92 H92       -70.2384   26.7015  -77.6196 H         1 UNK         0.0743 
     93 H93       -71.4461   26.1121  -74.8654 H         1 UNK         0.0784 
     94 H94       -71.0554   24.9058  -76.0845 H         1 UNK         0.0784 
     95 H95       -69.7732   25.8448  -75.3384 H         1 UNK         0.0784 
     96 H96       -72.3545   26.3569  -78.2700 H         1 UNK         0.3213 
     97 H97       -75.5137   27.5694  -77.1966 H         1 UNK         0.0855 
     98 H98       -73.8794   26.9352  -79.7143 H         1 UNK         0.0814 
     99 H99       -74.3938   28.5298  -79.1904 H         1 UNK         0.0814 
    100 H100      -75.5911   27.3298  -79.6413 H         1 UNK         0.0814 
    101 H101      -75.8754   25.4441  -76.8977 H         1 UNK         0.3105 
    102 H102      -75.8524   22.9206  -78.1654 H         1 UNK         0.0547 
    103 H103      -73.6943   21.8730  -78.7170 H         1 UNK         0.0837 
    104 H104      -73.0691   22.1921  -77.1078 H         1 UNK         0.0837 
    105 H105      -74.3952   21.0515  -77.3335 H         1 UNK         0.0837 
    106 H106      -76.5333   23.0250  -76.0778 H         1 UNK         0.3020 
    107 H107      -75.3940   22.7504  -73.1048 H         1 UNK         0.1245 
    108 H108      -75.7599   25.7896  -73.4386 H         1 UNK         0.0781 
    109 H109      -74.2997   25.0529  -72.8412 H         1 UNK         0.0781 
    110 H110      -78.3513   25.0089  -70.7143 H         1 UNK         0.0836 
    111 H111      -78.0915   25.3410  -72.4018 H         1 UNK         0.0836 
    112 H112      -77.5118   24.3352  -74.4746 H         1 UNK         0.3022 
    113 H113      -79.6702   21.6564  -74.7511 H         1 UNK         0.0747 
    114 H114      -81.3614   22.8575  -73.3558 H         1 UNK         0.0793 
    115 H115      -80.2267   21.9698  -72.3512 H         1 UNK         0.0793 
    116 H116      -80.0734   23.7127  -72.5096 H         1 UNK         0.0793 
    117 H117      -80.0425   24.5267  -74.8616 H         1 UNK         0.3047 
    118 H118      -78.4777   25.0209  -78.0061 H         1 UNK         0.0822 
    119 H119      -80.7307   25.8008  -78.7674 H         1 UNK         0.0807 
    120 H120      -81.4984   24.8205  -77.5190 H         1 UNK         0.0807 
    121 H121      -80.6074   24.0496  -78.8218 H         1 UNK         0.0807 
    122 H122      -80.1605   26.7345  -76.4892 H         1 UNK         0.2946 
    123 H123      -77.9855   27.5751  -73.8827 H         1 UNK         0.1144 
    124 H124      -78.2398   29.3308  -76.3802 H         1 UNK         0.0793 
    125 H125      -76.7319   28.8368  -75.6204 H         1 UNK         0.0793 
    126 H126      -77.8350   29.8878  -74.7538 H         1 UNK         0.0793 
    127 H127      -80.1833   29.0563  -74.7799 H         1 UNK         0.2896 
@<TRIPOS>BOND
     1    1    2 1    
     2    1   67 1    
     3    1   68 1    
     4    1   69 1    
     5    2    3 2    
     6    2    4 am   BACKBONE|DICT|INTERRES
     7    4    5 1    
     8    4   70 1    
     9    5    6 1    
    10    5   65 1    
    11    5   71 1    
    12    6    7 1    
    13    6   72 1    
    14    6   73 1    
    15    7    8 1    
    16    8    9 1    
    17    8   74 1    
    18    8   75 1    
    19    9   10 ar   
    20    9   14 ar   
    21   10   11 ar   
    22   10   76 1    
    23   11   12 ar   
    24   11   48 1    
    25   12   13 ar   
    26   12   77 1    
    27   13   14 ar   
    28   13   15 1    
    29   14   78 1    
    30   15   16 1    
    31   15   79 1    
    32   15   80 1    
    33   16   17 1    
    34   17   18 1    
    35   17   81 1    
    36   17   82 1    
    37   18   19 1    
    38   18   22 1    
    39   18   83 1    
    40   19   20 am   BACKBONE|DICT|INTERRES
    41   19   21 2    
    42   20   84 1    
    43   20   85 1    
    44   22   23 am   BACKBONE|DICT|INTERRES
    45   22   86 1    
    46   23   24 2    
    47   23   25 1    
    48   25   26 1    
    49   25   27 1    
    50   25   87 1    
    51   26   88 1    
    52   26   89 1    
    53   26   90 1    
    54   27   28 am   BACKBONE|DICT|INTERRES
    55   27   91 1    
    56   28   29 2    
    57   28   30 1    
    58   30   31 1    
    59   30   32 1    
    60   30   92 1    
    61   31   93 1    
    62   31   94 1    
    63   31   95 1    
    64   32   33 am   BACKBONE|DICT|INTERRES
    65   32   96 1    
    66   33   34 2    
    67   33   35 1    
    68   35   36 1    
    69   35   37 1    
    70   35   97 1    
    71   36   98 1    
    72   36   99 1    
    73   36  100 1    
    74   37   38 am   BACKBONE|DICT|INTERRES
    75   37  101 1    
    76   38   39 2    
    77   38   40 1    
    78   40   41 1    
    79   40   42 1    
    80   40  102 1    
    81   41  103 1    
    82   41  104 1    
    83   41  105 1    
    84   42   43 am   BACKBONE|DICT|INTERRES
    85   42  106 1    
    86   43   44 2    
    87   43   45 1    
    88   45   46 1    
    89   45   49 1    
    90   45  107 1    
    91   46   47 1    
    92   46  108 1    
    93   46  109 1    
    94   47   48 1    
    95   48  110 1    
    96   48  111 1    
    97   49   50 am   BACKBONE|DICT|INTERRES
    98   49  112 1    
    99   50   51 2    
   100   50   52 1    
   101   52   53 1    
   102   52   54 1    
   103   52  113 1    
   104   53  114 1    
   105   53  115 1    
   106   53  116 1    
   107   54   55 am   BACKBONE|DICT|INTERRES
   108   54  117 1    
   109   55   56 2    
   110   55   57 1    
   111   57   58 1    
   112   57   59 1    
   113   57  118 1    
   114   58  119 1    
   115   58  120 1    
   116   58  121 1    
   117   59   60 am   BACKBONE|DICT|INTERRES
   118   59  122 1    
   119   60   61 2    
   120   60   62 1    
   121   62   63 1    
   122   62   64 1    
   123   62  123 1    
   124   63  124 1    
   125   63  125 1    
   126   63  126 1    
   127   64   65 am   BACKBONE|DICT|INTERRES
   128   64  127 1    
   129   65   66 2    
@<TRIPOS>SUBSTRUCTURE
     1 UNK         1 GROUP             0       ****    0 ROOT    
