@<TRIPOS>MOLECULE
3R135
127   129    1
SMALL
USER_CHARGES


@<TRIPOS>ATOM
      1 CA        -79.5520   21.9516  -71.9215 C.3       0 UNK        -0.1998 
      2 C         -80.3212   23.1160  -72.5253 C.2       0 UNK         0.4909 
      3 O         -79.9402   23.6080  -73.5877 O.2       0 UNK        -0.5240 
      4 N         -81.4164   23.5279  -71.8686 N.am      1 UNK        -0.4739 
      5 CA        -82.3044   24.6701  -72.1653 C.3       1 UNK         0.0864 
      6 C6        -81.8155   26.0083  -71.5462 C.3       11 UNK        -0.0881 
      7 S7        -80.3094   26.7263  -72.2906 S.3       11 UNK        -0.2682 
      8 C8        -79.3936   27.1932  -70.7874 C.3       11 UNK         0.0289 
      9 C9        -78.2603   28.1646  -71.0831 C.ar      11 UNK        -0.0687 
     10 C10       -78.5373   29.3922  -71.6879 C.ar      11 UNK        -0.0823 
     11 C11       -77.5149   30.3083  -71.9391 C.ar      11 UNK        -0.0830 
     12 C12       -76.2101   30.0076  -71.5393 C.ar      11 UNK        -0.1021 
     13 C13       -75.9084   28.7755  -70.9389 C.ar      11 UNK        -0.0753 
     14 C14       -76.9444   27.8591  -70.7234 C.ar      11 UNK        -0.0933 
     15 C15       -74.4913   28.3753  -70.5159 C.3       11 UNK         0.0166 
     16 S16       -73.2906   29.7475  -70.3750 S.3       11 UNK        -0.2615 
     17 C17       -72.2509   29.4978  -71.8565 C.3       11 UNK        -0.0865 
     18 CA        -72.9499   29.8951  -73.1880 C.3       10 UNK         0.0862 
     19 C         -73.0174   31.4289  -73.4635 C.2       10 UNK         0.5551 
     20 N         -73.4167   31.8384  -74.6605 N.am      10 UNK        -0.7319 
     21 O         -72.7128   32.2529  -72.6047 O.2       10 UNK        -0.5018 
     22 N         -72.4460   29.1091  -74.3217 N.am      10 UNK        -0.4509 
     23 C         -71.2188   29.1987  -74.8525 C.2       10 UNK         0.4899 
     24 O         -70.3490   29.9730  -74.4493 O.2       10 UNK        -0.4839 
     25 CA        -70.9148   28.2415  -76.0229 C.3       9 UNK         0.0222 
     26 CB        -69.4069   28.1228  -76.3300 C.3       9 UNK        -0.1966 
     27 N         -71.5154   26.9129  -75.8463 N.am      9 UNK        -0.4218 
     28 C         -71.3209   26.0577  -74.8263 C.2       9 UNK         0.5020 
     29 O         -70.5334   26.2635  -73.9015 O.2       9 UNK        -0.5274 
     30 CA        -72.1510   24.7604  -74.8158 C.3       8 UNK         0.0270 
     31 CB        -72.7955   24.5176  -73.4375 C.3       8 UNK        -0.1976 
     32 N         -73.1976   24.7799  -75.8426 N.am      8 UNK        -0.4313 
     33 C         -73.1298   24.1115  -77.0015 C.2       8 UNK         0.5041 
     34 O         -72.2097   23.3480  -77.2974 O.2       8 UNK        -0.5577 
     35 CA        -74.2568   24.3359  -78.0226 C.3       7 UNK         0.0284 
     36 CB        -75.3509   23.2666  -77.8717 C.3       7 UNK        -0.1958 
     37 N         -74.8630   25.6715  -77.9968 N.am      7 UNK        -0.4454 
     38 C         -74.2329   26.8068  -78.3319 C.2       7 UNK         0.5089 
     39 O         -73.0181   26.8846  -78.5119 O.2       7 UNK        -0.5125 
     40 CA        -75.1015   28.0636  -78.4931 C.3       6 UNK         0.0408 
     41 CB        -75.9850   27.9560  -79.7470 C.3       6 UNK        -0.1791 
     42 N         -75.9471   28.2610  -77.3190 N.am      6 UNK        -0.4762 
     43 C         -75.6764   29.1137  -76.3212 C.2       6 UNK         0.5007 
     44 O         -74.7344   29.9068  -76.3378 O.2       6 UNK        -0.5032 
     45 CA        -76.5673   29.0201  -75.0600 C.3       5 UNK         0.0783 
     46 C46       -77.7095   30.0700  -75.0684 C.3       11 UNK        -0.0857 
     47 S47       -77.1487   31.6573  -74.3559 S.3       11 UNK        -0.2512 
     48 C48       -77.8261   31.6133  -72.6605 C.3       11 UNK         0.0225 
     49 N         -77.0513   27.6586  -74.7999 N.am      5 UNK        -0.4615 
     50 C         -76.2430   26.6084  -74.5993 C.2       4 UNK         0.5053 
     51 O         -75.0141   26.6939  -74.5732 O.2       4 UNK        -0.5105 
     52 CA        -76.8831   25.2147  -74.4879 C.3       4 UNK         0.0263 
     53 CB        -76.9957   24.7944  -73.0158 C.3       4 UNK        -0.1981 
     54 N         -78.1692   25.0244  -75.1850 N.am      4 UNK        -0.4224 
     55 C         -78.3658   25.2464  -76.4960 C.2       3 UNK         0.4895 
     56 O         -77.5281   25.7991  -77.2112 O.2       3 UNK        -0.5091 
     57 CA        -79.6558   24.7671  -77.1807 C.3       3 UNK         0.0250 
     58 CB        -79.3202   23.6340  -78.1740 C.3       3 UNK        -0.1996 
     59 N         -80.7523   24.3432  -76.2986 N.am      3 UNK        -0.4254 
     60 C         -82.0323   24.3117  -76.7123 C.2       2 UNK         0.5004 
     61 O         -82.4039   24.7504  -77.8025 O.2       2 UNK        -0.5226 
     62 CA        -83.0894   23.6551  -75.8053 C.3       2 UNK         0.0269 
     63 CB        -83.3104   22.1909  -76.2198 C.3       2 UNK        -0.1926 
     64 N         -82.7572   23.7002  -74.3851 N.am      2 UNK        -0.4687 
     65 C         -82.7960   24.8035  -73.6284 C.2       1 UNK         0.5165 
     66 O         -83.2261   25.8828  -74.0405 O.2       1 UNK        -0.5079 
     67 H67       -79.3083   21.2218  -72.6931 H         1 UNK         0.0900 
     68 H68       -80.1248   21.4439  -71.1458 H         1 UNK         0.0900 
     69 H69       -78.6213   22.3062  -71.4806 H         1 UNK         0.0900 
     70 H70       -81.6665   23.0284  -71.0262 H         1 UNK         0.2959 
     71 H71       -83.2224   24.4243  -71.6286 H         1 UNK         0.1079 
     72 H72       -81.6481   25.8554  -70.4791 H         1 UNK         0.0837 
     73 H73       -82.6043   26.7607  -71.6026 H         1 UNK         0.0837 
     74 H74       -80.0745   27.6684  -70.0797 H         1 UNK         0.0685 
     75 H75       -79.0211   26.2880  -70.3053 H         1 UNK         0.0685 
     76 H76       -79.5534   29.6245  -71.9767 H         1 UNK         0.1434 
     77 H77       -75.4362   30.7376  -71.7246 H         1 UNK         0.1329 
     78 H78       -76.7260   26.9073  -70.2584 H         1 UNK         0.1335 
     79 H79       -74.1183   27.6237  -71.2132 H         1 UNK         0.0680 
     80 H80       -74.5405   27.8876  -69.5412 H         1 UNK         0.0680 
     81 H81       -71.3179   30.0508  -71.7340 H         1 UNK         0.1032 
     82 H82       -71.9599   28.4460  -71.8806 H         1 UNK         0.1032 
     83 H83       -73.9855   29.5773  -73.1087 H         1 UNK         0.0461 
     84 H84       -73.4678   32.8248  -74.8561 H         1 UNK         0.3453 
     85 H85       -73.7361   31.1653  -75.3520 H         1 UNK         0.3453 
     86 H86       -73.1011   28.4566  -74.7296 H         1 UNK         0.2984 
     87 H87       -71.3963   28.6767  -76.8998 H         1 UNK         0.0554 
     88 H88       -69.2255   27.4589  -77.1751 H         1 UNK         0.0847 
     89 H89       -68.8487   27.7392  -75.4754 H         1 UNK         0.0847 
     90 H90       -68.9819   29.0940  -76.5860 H         1 UNK         0.0847 
     91 H91       -72.1530   26.6348  -76.5841 H         1 UNK         0.3141 
     92 H92       -71.4540   23.9406  -75.0005 H         1 UNK         0.0743 
     93 H93       -73.3830   25.3725  -73.1033 H         1 UNK         0.0784 
     94 H94       -73.4481   23.6445  -73.4499 H         1 UNK         0.0784 
     95 H95       -72.0324   24.3391  -72.6790 H         1 UNK         0.0784 
     96 H96       -73.9750   25.4099  -75.6648 H         1 UNK         0.3213 
     97 H97       -73.8105   24.2112  -79.0118 H         1 UNK         0.0855 
     98 H98       -74.9266   22.2634  -77.9330 H         1 UNK         0.0814 
     99 H99       -76.0958   23.3488  -78.6629 H         1 UNK         0.0814 
    100 H100      -75.8676   23.3414  -76.9160 H         1 UNK         0.0814 
    101 H101      -75.8653   25.7091  -77.8143 H         1 UNK         0.3105 
    102 H102      -74.4341   28.9170  -78.6302 H         1 UNK         0.0547 
    103 H103      -76.5501   28.8738  -79.9095 H         1 UNK         0.0837 
    104 H104      -75.3791   27.7873  -80.6383 H         1 UNK         0.0837 
    105 H105      -76.6990   27.1343  -79.6764 H         1 UNK         0.0837 
    106 H106      -76.7023   27.5936  -77.1923 H         1 UNK         0.3020 
    107 H107      -75.9124   29.2412  -74.2179 H         1 UNK         0.1245 
    108 H108      -78.5689   29.7185  -74.4966 H         1 UNK         0.0781 
    109 H109      -78.0894   30.2445  -76.0770 H         1 UNK         0.0781 
    110 H110      -78.9031   31.7816  -72.7083 H         1 UNK         0.0836 
    111 H111      -77.4133   32.4481  -72.0924 H         1 UNK         0.0836 
    112 H112      -78.0492   27.5075  -74.8106 H         1 UNK         0.3022 
    113 H113      -76.1777   24.5274  -74.9559 H         1 UNK         0.0747 
    114 H114      -77.2260   23.7335  -72.9287 H         1 UNK         0.0793 
    115 H115      -77.7708   25.3532  -72.4949 H         1 UNK         0.0793 
    116 H116      -76.0584   24.9627  -72.4832 H         1 UNK         0.0793 
    117 H117      -78.8957   24.5675  -74.6350 H         1 UNK         0.3047 
    118 H118      -79.9998   25.6293  -77.7563 H         1 UNK         0.0822 
    119 H119      -78.9842   22.7352  -77.6555 H         1 UNK         0.0807 
    120 H120      -78.5272   23.9313  -78.8615 H         1 UNK         0.0807 
    121 H121      -80.1803   23.3649  -78.7868 H         1 UNK         0.0807 
    122 H122      -80.5175   23.9972  -75.3714 H         1 UNK         0.2946 
    123 H123      -84.0260   24.1974  -75.9554 H         1 UNK         0.1144 
    124 H124      -83.5897   22.1210  -77.2721 H         1 UNK         0.0793 
    125 H125      -82.4093   21.5917  -76.0817 H         1 UNK         0.0793 
    126 H126      -84.1128   21.7310  -75.6426 H         1 UNK         0.0793 
    127 H127      -82.3727   22.8613  -73.9751 H         1 UNK         0.2896 
@<TRIPOS>BOND
     1    1    2 1    
     2    1   67 1    
     3    1   68 1    
     4    1   69 1    
     5    2    3 2    
     6    2    4 am   BACKBONE|DICT|INTERRES
     7    4    5 1    
     8    4   70 1    
     9    5    6 1    
    10    5   65 1    
    11    5   71 1    
    12    6    7 1    
    13    6   72 1    
    14    6   73 1    
    15    7    8 1    
    16    8    9 1    
    17    8   74 1    
    18    8   75 1    
    19    9   10 ar   
    20    9   14 ar   
    21   10   11 ar   
    22   10   76 1    
    23   11   12 ar   
    24   11   48 1    
    25   12   13 ar   
    26   12   77 1    
    27   13   14 ar   
    28   13   15 1    
    29   14   78 1    
    30   15   16 1    
    31   15   79 1    
    32   15   80 1    
    33   16   17 1    
    34   17   18 1    
    35   17   81 1    
    36   17   82 1    
    37   18   19 1    
    38   18   22 1    
    39   18   83 1    
    40   19   20 am   BACKBONE|DICT|INTERRES
    41   19   21 2    
    42   20   84 1    
    43   20   85 1    
    44   22   23 am   BACKBONE|DICT|INTERRES
    45   22   86 1    
    46   23   24 2    
    47   23   25 1    
    48   25   26 1    
    49   25   27 1    
    50   25   87 1    
    51   26   88 1    
    52   26   89 1    
    53   26   90 1    
    54   27   28 am   BACKBONE|DICT|INTERRES
    55   27   91 1    
    56   28   29 2    
    57   28   30 1    
    58   30   31 1    
    59   30   32 1    
    60   30   92 1    
    61   31   93 1    
    62   31   94 1    
    63   31   95 1    
    64   32   33 am   BACKBONE|DICT|INTERRES
    65   32   96 1    
    66   33   34 2    
    67   33   35 1    
    68   35   36 1    
    69   35   37 1    
    70   35   97 1    
    71   36   98 1    
    72   36   99 1    
    73   36  100 1    
    74   37   38 am   BACKBONE|DICT|INTERRES
    75   37  101 1    
    76   38   39 2    
    77   38   40 1    
    78   40   41 1    
    79   40   42 1    
    80   40  102 1    
    81   41  103 1    
    82   41  104 1    
    83   41  105 1    
    84   42   43 am   BACKBONE|DICT|INTERRES
    85   42  106 1    
    86   43   44 2    
    87   43   45 1    
    88   45   46 1    
    89   45   49 1    
    90   45  107 1    
    91   46   47 1    
    92   46  108 1    
    93   46  109 1    
    94   47   48 1    
    95   48  110 1    
    96   48  111 1    
    97   49   50 am   BACKBONE|DICT|INTERRES
    98   49  112 1    
    99   50   51 2    
   100   50   52 1    
   101   52   53 1    
   102   52   54 1    
   103   52  113 1    
   104   53  114 1    
   105   53  115 1    
   106   53  116 1    
   107   54   55 am   BACKBONE|DICT|INTERRES
   108   54  117 1    
   109   55   56 2    
   110   55   57 1    
   111   57   58 1    
   112   57   59 1    
   113   57  118 1    
   114   58  119 1    
   115   58  120 1    
   116   58  121 1    
   117   59   60 am   BACKBONE|DICT|INTERRES
   118   59  122 1    
   119   60   61 2    
   120   60   62 1    
   121   62   63 1    
   122   62   64 1    
   123   62  123 1    
   124   63  124 1    
   125   63  125 1    
   126   63  126 1    
   127   64   65 am   BACKBONE|DICT|INTERRES
   128   64  127 1    
   129   65   66 2    
@<TRIPOS>SUBSTRUCTURE
     1 UNK         1 GROUP             0       ****    0 ROOT    
