@<TRIPOS>MOLECULE
3R135
127   129    1
SMALL
USER_CHARGES


@<TRIPOS>ATOM
      1 CA        -80.4144   28.5984  -70.2640 C.3       0 UNK        -0.1998 
      2 C         -81.4622   28.4570  -71.3577 C.2       0 UNK         0.4909 
      3 O         -82.6350   28.2326  -71.0585 O.2       0 UNK        -0.5240 
      4 N         -81.0483   28.5904  -72.6244 N.am      1 UNK        -0.4739 
      5 CA        -81.9150   28.5087  -73.8070 C.3       1 UNK         0.0864 
      6 C6        -81.2850   29.2417  -75.0192 C.3       11 UNK        -0.0881 
      7 S7        -79.8247   28.4222  -75.7561 S.3       11 UNK        -0.2682 
      8 C8        -78.4248   29.4184  -75.1382 C.3       11 UNK         0.0289 
      9 C9        -77.7773   28.9383  -73.8360 C.ar      11 UNK        -0.0687 
     10 C10       -78.0691   27.7060  -73.2294 C.ar      11 UNK        -0.0823 
     11 C11       -77.4622   27.3450  -72.0203 C.ar      11 UNK        -0.0830 
     12 C12       -76.5212   28.2001  -71.4405 C.ar      11 UNK        -0.1021 
     13 C13       -76.1924   29.4110  -72.0520 C.ar      11 UNK        -0.0753 
     14 C14       -76.8290   29.7751  -73.2405 C.ar      11 UNK        -0.0933 
     15 C15       -75.1530   30.3302  -71.4315 C.3       11 UNK         0.0166 
     16 S16       -73.4724   29.8059  -71.8851 S.3       11 UNK        -0.2615 
     17 C17       -72.5246   31.3270  -71.5395 C.3       11 UNK        -0.0865 
     18 CA        -72.2675   32.1673  -72.8285 C.3       10 UNK         0.0862 
     19 C         -71.6081   33.5566  -72.5568 C.2       10 UNK         0.5551 
     20 N         -71.9523   34.2272  -71.4647 N.am      10 UNK        -0.7319 
     21 O         -70.8242   34.0676  -73.3553 O.2       10 UNK        -0.5018 
     22 N         -71.5885   31.3924  -73.8837 N.am      10 UNK        -0.4509 
     23 C         -70.3387   30.9158  -73.8385 C.2       10 UNK         0.4899 
     24 O         -69.5837   31.0323  -72.8710 O.2       10 UNK        -0.4839 
     25 CA        -69.8731   30.1360  -75.0789 C.3       9 UNK         0.0222 
     26 CB        -68.3418   30.1595  -75.2429 C.3       9 UNK        -0.1966 
     27 N         -70.3231   28.7480  -74.9873 N.am      9 UNK        -0.4218 
     28 C         -71.5361   28.3089  -75.3446 C.2       9 UNK         0.5020 
     29 O         -72.4095   29.0261  -75.8400 O.2       9 UNK        -0.5274 
     30 CA        -71.8217   26.8238  -75.0619 C.3       8 UNK         0.0270 
     31 CB        -72.4591   26.6589  -73.6727 C.3       8 UNK        -0.1976 
     32 N         -72.6946   26.2227  -76.0741 N.am      8 UNK        -0.4313 
     33 C         -72.3251   25.9773  -77.3411 C.2       8 UNK         0.5041 
     34 O         -71.1915   26.2050  -77.7685 O.2       8 UNK        -0.5577 
     35 CA        -73.3555   25.3456  -78.3003 C.3       7 UNK         0.0284 
     36 CB        -72.9914   23.8795  -78.5880 C.3       7 UNK        -0.1958 
     37 N         -74.7344   25.4058  -77.8123 N.am      7 UNK        -0.4454 
     38 C         -75.4886   26.5148  -77.8046 C.2       7 UNK         0.5089 
     39 O         -75.1291   27.5812  -78.3040 O.2       7 UNK        -0.5125 
     40 CA        -76.8749   26.4408  -77.1304 C.3       6 UNK         0.0408 
     41 CB        -77.9753   26.3517  -78.2001 C.3       6 UNK        -0.1791 
     42 N         -77.0643   25.3437  -76.1773 N.am      6 UNK        -0.4762 
     43 C         -76.2838   25.0430  -75.1281 C.2       6 UNK         0.5007 
     44 O         -75.2908   25.6935  -74.8079 O.2       6 UNK        -0.5032 
     45 CA        -76.6154   23.7349  -74.3782 C.3       5 UNK         0.0783 
     46 C46       -77.5765   23.9841  -73.1929 C.3       11 UNK        -0.0857 
     47 S47       -76.7456   24.6725  -71.7256 S.3       11 UNK        -0.2512 
     48 C48       -77.8456   26.0585  -71.3023 C.3       11 UNK         0.0225 
     49 N         -77.1601   22.7034  -75.2690 N.am      5 UNK        -0.4615 
     50 C         -76.5915   22.2099  -76.3762 C.2       4 UNK         0.5053 
     51 O         -75.4625   22.5197  -76.7556 O.2       4 UNK        -0.5105 
     52 CA        -77.4482   21.2713  -77.2487 C.3       4 UNK         0.0263 
     53 CB        -77.3279   19.8075  -76.7818 C.3       4 UNK        -0.1981 
     54 N         -78.8536   21.6981  -77.3840 N.am      4 UNK        -0.4224 
     55 C         -79.8069   21.7390  -76.4414 C.2       3 UNK         0.4895 
     56 O         -79.6567   21.3236  -75.2894 O.2       3 UNK        -0.5091 
     57 CA        -81.1419   22.3887  -76.8445 C.3       3 UNK         0.0250 
     58 CB        -82.1191   21.3266  -77.3732 C.3       3 UNK        -0.1996 
     59 N         -81.7598   23.0949  -75.7175 N.am      3 UNK        -0.4254 
     60 C         -81.2330   24.1628  -75.1016 C.2       2 UNK         0.5004 
     61 O         -80.1950   24.7236  -75.4646 O.2       2 UNK        -0.5226 
     62 CA        -81.9673   24.6393  -73.8365 C.3       2 UNK         0.0269 
     63 CB        -81.5219   23.8201  -72.6133 C.3       2 UNK        -0.1926 
     64 N         -81.7189   26.0560  -73.5689 N.am      2 UNK        -0.4687 
     65 C         -82.3691   27.0701  -74.1559 C.2       1 UNK         0.5165 
     66 O         -83.3045   26.9090  -74.9423 O.2       1 UNK        -0.5079 
     67 H67       -80.2221   27.6321  -69.7991 H         1 UNK         0.0900 
     68 H68       -79.4727   28.9878  -70.6507 H         1 UNK         0.0900 
     69 H69       -80.7668   29.2830  -69.4930 H         1 UNK         0.0900 
     70 H70       -80.0724   28.7748  -72.8149 H         1 UNK         0.2959 
     71 H71       -82.8335   29.0472  -73.5616 H         1 UNK         0.1079 
     72 H72       -81.0334   30.2662  -74.7419 H         1 UNK         0.0837 
     73 H73       -82.0314   29.3397  -75.8097 H         1 UNK         0.0837 
     74 H74       -77.6567   29.4370  -75.9114 H         1 UNK         0.0685 
     75 H75       -78.7471   30.4541  -75.0230 H         1 UNK         0.0685 
     76 H76       -78.7750   27.0264  -73.6849 H         1 UNK         0.1434 
     77 H77       -76.0388   27.9215  -70.5134 H         1 UNK         0.1329 
     78 H78       -76.5775   30.7163  -73.7105 H         1 UNK         0.1335 
     79 H79       -75.2523   30.3340  -70.3450 H         1 UNK         0.0680 
     80 H80       -75.3188   31.3567  -71.7627 H         1 UNK         0.0680 
     81 H81       -73.0664   31.9032  -70.7888 H         1 UNK         0.1032 
     82 H82       -71.5796   31.0469  -71.0715 H         1 UNK         0.1032 
     83 H83       -73.2421   32.4127  -73.2521 H         1 UNK         0.0461 
     84 H84       -72.6185   33.8584  -70.8056 H         1 UNK         0.3453 
     85 H85       -71.5408   35.1333  -71.3023 H         1 UNK         0.3453 
     86 H86       -72.1392   31.2002  -74.7095 H         1 UNK         0.2984 
     87 H87       -70.3073   30.6048  -75.9648 H         1 UNK         0.0554 
     88 H88       -68.0341   29.6567  -76.1600 H         1 UNK         0.0847 
     89 H89       -67.8326   29.6747  -74.4087 H         1 UNK         0.0847 
     90 H90       -67.9731   31.1847  -75.2972 H         1 UNK         0.0847 
     91 H91       -69.6848   28.1005  -74.5471 H         1 UNK         0.3141 
     92 H92       -70.8765   26.2767  -75.0720 H         1 UNK         0.0743 
     93 H93       -73.4060   27.1966  -73.6004 H         1 UNK         0.0784 
     94 H94       -72.6526   25.6110  -73.4431 H         1 UNK         0.0784 
     95 H95       -71.8063   27.0493  -72.8908 H         1 UNK         0.0784 
     96 H96       -73.6541   26.0423  -75.7890 H         1 UNK         0.3213 
     97 H97       -73.3011   25.8977  -79.2412 H         1 UNK         0.0855 
     98 H98       -72.9953   23.2781  -77.6781 H         1 UNK         0.0814 
     99 H99       -71.9943   23.8029  -79.0237 H         1 UNK         0.0814 
    100 H100      -73.6883   23.4260  -79.2930 H         1 UNK         0.0814 
    101 H101      -75.1004   24.5631  -77.3829 H         1 UNK         0.3105 
    102 H102      -77.0037   27.3656  -76.5707 H         1 UNK         0.0547 
    103 H103      -78.9694   26.3477  -77.7526 H         1 UNK         0.0837 
    104 H104      -77.9306   27.2051  -78.8780 H         1 UNK         0.0837 
    105 H105      -77.8774   25.4486  -78.8035 H         1 UNK         0.0837 
    106 H106      -77.8875   24.7725  -76.3167 H         1 UNK         0.3020 
    107 H107      -75.6730   23.3402  -73.9918 H         1 UNK         0.1245 
    108 H108      -78.0284   23.0434  -72.8734 H         1 UNK         0.0781 
    109 H109      -78.4081   24.6198  -73.4981 H         1 UNK         0.0781 
    110 H110      -77.7925   26.2183  -70.2242 H         1 UNK         0.0836 
    111 H111      -78.8841   25.7954  -71.5069 H         1 UNK         0.0836 
    112 H112      -78.0908   22.3597  -75.0478 H         1 UNK         0.3022 
    113 H113      -77.0310   21.3234  -78.2559 H         1 UNK         0.0747 
    114 H114      -77.8996   19.1382  -77.4246 H         1 UNK         0.0793 
    115 H115      -76.2889   19.4770  -76.8119 H         1 UNK         0.0793 
    116 H116      -77.6781   19.6704  -75.7584 H         1 UNK         0.0793 
    117 H117      -79.0884   22.0730  -78.2933 H         1 UNK         0.3047 
    118 H118      -80.9542   23.1206  -77.6332 H         1 UNK         0.0822 
    119 H119      -83.0584   21.7759  -77.6965 H         1 UNK         0.0807 
    120 H120      -82.3483   20.5763  -76.6150 H         1 UNK         0.0807 
    121 H121      -81.7004   20.8021  -78.2332 H         1 UNK         0.0807 
    122 H122      -82.5890   22.6709  -75.3279 H         1 UNK         0.2946 
    123 H123      -83.0400   24.4912  -73.9827 H         1 UNK         0.1144 
    124 H124      -82.0720   24.1140  -71.7191 H         1 UNK         0.0793 
    125 H125      -80.4591   23.9414  -72.4062 H         1 UNK         0.0793 
    126 H126      -81.7016   22.7551  -72.7666 H         1 UNK         0.0793 
    127 H127      -80.9504   26.2795  -72.9572 H         1 UNK         0.2896 
@<TRIPOS>BOND
     1    1    2 1    
     2    1   67 1    
     3    1   68 1    
     4    1   69 1    
     5    2    3 2    
     6    2    4 am   BACKBONE|DICT|INTERRES
     7    4    5 1    
     8    4   70 1    
     9    5    6 1    
    10    5   65 1    
    11    5   71 1    
    12    6    7 1    
    13    6   72 1    
    14    6   73 1    
    15    7    8 1    
    16    8    9 1    
    17    8   74 1    
    18    8   75 1    
    19    9   10 ar   
    20    9   14 ar   
    21   10   11 ar   
    22   10   76 1    
    23   11   12 ar   
    24   11   48 1    
    25   12   13 ar   
    26   12   77 1    
    27   13   14 ar   
    28   13   15 1    
    29   14   78 1    
    30   15   16 1    
    31   15   79 1    
    32   15   80 1    
    33   16   17 1    
    34   17   18 1    
    35   17   81 1    
    36   17   82 1    
    37   18   19 1    
    38   18   22 1    
    39   18   83 1    
    40   19   20 am   BACKBONE|DICT|INTERRES
    41   19   21 2    
    42   20   84 1    
    43   20   85 1    
    44   22   23 am   BACKBONE|DICT|INTERRES
    45   22   86 1    
    46   23   24 2    
    47   23   25 1    
    48   25   26 1    
    49   25   27 1    
    50   25   87 1    
    51   26   88 1    
    52   26   89 1    
    53   26   90 1    
    54   27   28 am   BACKBONE|DICT|INTERRES
    55   27   91 1    
    56   28   29 2    
    57   28   30 1    
    58   30   31 1    
    59   30   32 1    
    60   30   92 1    
    61   31   93 1    
    62   31   94 1    
    63   31   95 1    
    64   32   33 am   BACKBONE|DICT|INTERRES
    65   32   96 1    
    66   33   34 2    
    67   33   35 1    
    68   35   36 1    
    69   35   37 1    
    70   35   97 1    
    71   36   98 1    
    72   36   99 1    
    73   36  100 1    
    74   37   38 am   BACKBONE|DICT|INTERRES
    75   37  101 1    
    76   38   39 2    
    77   38   40 1    
    78   40   41 1    
    79   40   42 1    
    80   40  102 1    
    81   41  103 1    
    82   41  104 1    
    83   41  105 1    
    84   42   43 am   BACKBONE|DICT|INTERRES
    85   42  106 1    
    86   43   44 2    
    87   43   45 1    
    88   45   46 1    
    89   45   49 1    
    90   45  107 1    
    91   46   47 1    
    92   46  108 1    
    93   46  109 1    
    94   47   48 1    
    95   48  110 1    
    96   48  111 1    
    97   49   50 am   BACKBONE|DICT|INTERRES
    98   49  112 1    
    99   50   51 2    
   100   50   52 1    
   101   52   53 1    
   102   52   54 1    
   103   52  113 1    
   104   53  114 1    
   105   53  115 1    
   106   53  116 1    
   107   54   55 am   BACKBONE|DICT|INTERRES
   108   54  117 1    
   109   55   56 2    
   110   55   57 1    
   111   57   58 1    
   112   57   59 1    
   113   57  118 1    
   114   58  119 1    
   115   58  120 1    
   116   58  121 1    
   117   59   60 am   BACKBONE|DICT|INTERRES
   118   59  122 1    
   119   60   61 2    
   120   60   62 1    
   121   62   63 1    
   122   62   64 1    
   123   62  123 1    
   124   63  124 1    
   125   63  125 1    
   126   63  126 1    
   127   64   65 am   BACKBONE|DICT|INTERRES
   128   64  127 1    
   129   65   66 2    
@<TRIPOS>SUBSTRUCTURE
     1 UNK         1 GROUP             0       ****    0 ROOT    
