@<TRIPOS>MOLECULE
3R135
127   129    1
SMALL
USER_CHARGES


@<TRIPOS>ATOM
      1 CA        -84.2248   24.1381  -73.8012 C.3       0 UNK        -0.1998 
      2 C         -83.4781   25.4349  -74.0730 C.2       0 UNK         0.4909 
      3 O         -83.3406   25.8314  -75.2310 O.2       0 UNK        -0.5240 
      4 N         -82.9913   26.1005  -73.0168 N.am      1 UNK        -0.4739 
      5 CA        -82.1592   27.3050  -73.1076 C.3       1 UNK         0.0864 
      6 C6        -81.9990   27.9827  -71.7244 C.3       11 UNK        -0.0881 
      7 S7        -81.4248   29.7141  -71.8412 S.3       11 UNK        -0.2682 
      8 C8        -79.9672   29.7230  -70.7457 C.3       11 UNK         0.0289 
      9 C9        -78.7347   29.1231  -71.4090 C.ar      11 UNK        -0.0687 
     10 C10       -78.4231   27.7720  -71.2315 C.ar      11 UNK        -0.0823 
     11 C11       -77.2942   27.2057  -71.8329 C.ar      11 UNK        -0.0830 
     12 C12       -76.4471   28.0316  -72.5832 C.ar      11 UNK        -0.1021 
     13 C13       -76.7621   29.3759  -72.7975 C.ar      11 UNK        -0.0753 
     14 C14       -77.9040   29.9194  -72.2029 C.ar      11 UNK        -0.0933 
     15 C15       -75.9127   30.2089  -73.7440 C.3       11 UNK         0.0166 
     16 S16       -74.7721   31.3217  -72.8710 S.3       11 UNK        -0.2615 
     17 C17       -73.7559   31.8833  -74.2856 C.3       11 UNK        -0.0865 
     18 CA        -72.2422   31.5178  -74.2094 C.3       10 UNK         0.0862 
     19 C         -71.3398   32.5029  -73.4051 C.2       10 UNK         0.5551 
     20 N         -71.9015   33.4388  -72.6506 N.am      10 UNK        -0.7319 
     21 O         -70.1161   32.4516  -73.5130 O.2       10 UNK        -0.5018 
     22 N         -71.9977   30.0825  -73.9670 N.am      10 UNK        -0.4509 
     23 C         -71.7140   29.4744  -72.8007 C.2       10 UNK         0.4899 
     24 O         -71.6112   30.0558  -71.7200 O.2       10 UNK        -0.4839 
     25 CA        -71.5272   27.9431  -72.8110 C.3       9 UNK         0.0222 
     26 CB        -72.4811   27.2688  -71.8105 C.3       9 UNK        -0.1966 
     27 N         -71.7152   27.3361  -74.1303 N.am      9 UNK        -0.4218 
     28 C         -70.7754   27.2574  -75.0807 C.2       9 UNK         0.5020 
     29 O         -69.6189   27.6551  -74.9359 O.2       9 UNK        -0.5274 
     30 CA        -71.1950   26.6444  -76.4284 C.3       8 UNK         0.0270 
     31 CB        -70.7357   25.1802  -76.5165 C.3       8 UNK        -0.1976 
     32 N         -72.6336   26.7179  -76.7156 N.am      8 UNK        -0.4313 
     33 C         -73.3217   27.8521  -76.9193 C.2       8 UNK         0.5041 
     34 O         -72.8356   28.9682  -76.7290 O.2       8 UNK        -0.5577 
     35 CA        -74.7953   27.7536  -77.3752 C.3       7 UNK         0.0284 
     36 CB        -75.0679   28.6411  -78.6058 C.3       7 UNK        -0.1958 
     37 N         -75.3056   26.3929  -77.5946 N.am      7 UNK        -0.4454 
     38 C         -74.9020   25.4634  -78.4763 C.2       7 UNK         0.5089 
     39 O         -74.0288   25.6515  -79.3236 O.2       7 UNK        -0.5125 
     40 CA        -75.5530   24.0680  -78.3278 C.3       6 UNK         0.0408 
     41 CB        -74.7249   22.9460  -78.9873 C.3       6 UNK        -0.1791 
     42 N         -75.8574   23.7407  -76.9259 N.am      6 UNK        -0.4762 
     43 C         -74.9918   23.7158  -75.8978 C.2       6 UNK         0.5007 
     44 O         -73.7716   23.7898  -76.0429 O.2       6 UNK        -0.5032 
     45 CA        -75.5700   23.7210  -74.4660 C.3       5 UNK         0.0783 
     46 C46       -75.2178   25.0686  -73.7872 C.3       11 UNK        -0.0857 
     47 S47       -75.4096   25.0472  -71.9723 S.3       11 UNK        -0.2512 
     48 C48       -77.0980   25.6917  -71.7065 C.3       11 UNK         0.0225 
     49 N         -77.0226   23.5279  -74.4806 N.am      5 UNK        -0.4615 
     50 C         -77.6614   22.3819  -74.2203 C.2       4 UNK         0.5053 
     51 O         -77.0939   21.3382  -73.8985 O.2       4 UNK        -0.5105 
     52 CA        -79.1971   22.3983  -74.3525 C.3       4 UNK         0.0263 
     53 CB        -79.8585   22.5620  -72.9746 C.3       4 UNK        -0.1981 
     54 N         -79.6835   23.4489  -75.2547 N.am      4 UNK        -0.4224 
     55 C         -79.5431   23.4114  -76.5899 C.2       3 UNK         0.4895 
     56 O         -79.0374   22.4650  -77.1924 O.2       3 UNK        -0.5091 
     57 CA        -79.9919   24.6430  -77.3976 C.3       3 UNK         0.0250 
     58 CB        -81.4072   24.4306  -77.9566 C.3       3 UNK        -0.1996 
     59 N         -79.9480   25.9001  -76.6470 N.am      3 UNK        -0.4254 
     60 C         -78.8407   26.4477  -76.1254 C.2       2 UNK         0.5004 
     61 O         -77.7187   25.9516  -76.2249 O.2       2 UNK        -0.5226 
     62 CA        -79.0117   27.7309  -75.3002 C.3       2 UNK         0.0269 
     63 CB        -78.7620   28.9735  -76.1676 C.3       2 UNK        -0.1926 
     64 N         -80.3056   27.8521  -74.6217 N.am      2 UNK        -0.4687 
     65 C         -80.7973   26.9646  -73.7453 C.2       1 UNK         0.5165 
     66 O         -80.2309   25.9092  -73.4463 O.2       1 UNK        -0.5079 
     67 H67       -85.2408   24.2015  -74.1897 H         1 UNK         0.0900 
     68 H68       -84.2815   23.9157  -72.7358 H         1 UNK         0.0900 
     69 H69       -83.7215   23.3071  -74.2948 H         1 UNK         0.0900 
     70 H70       -83.1084   25.7144  -72.0910 H         1 UNK         0.2959 
     71 H71       -82.6838   27.9986  -73.7692 H         1 UNK         0.1079 
     72 H72       -82.9653   28.0128  -71.2181 H         1 UNK         0.0837 
     73 H73       -81.3478   27.3979  -71.0739 H         1 UNK         0.0837 
     74 H74       -79.7562   30.7547  -70.4600 H         1 UNK         0.0685 
     75 H75       -80.1995   29.1978  -69.8179 H         1 UNK         0.0685 
     76 H76       -79.0796   27.1470  -70.6426 H         1 UNK         0.1434 
     77 H77       -75.5631   27.6348  -73.0525 H         1 UNK         0.1329 
     78 H78       -78.1521   30.9589  -72.3689 H         1 UNK         0.1335 
     79 H79       -76.5606   30.7987  -74.3942 H         1 UNK         0.0680 
     80 H80       -75.3377   29.5526  -74.3994 H         1 UNK         0.0680 
     81 H81       -73.8944   32.9579  -74.4151 H         1 UNK         0.1032 
     82 H82       -74.1600   31.4517  -75.2026 H         1 UNK         0.1032 
     83 H83       -71.8788   31.6553  -75.2289 H         1 UNK         0.0461 
     84 H84       -71.3151   34.0854  -72.1469 H         1 UNK         0.3453 
     85 H85       -72.9022   33.4644  -72.5302 H         1 UNK         0.3453 
     86 H86       -72.0591   29.5069  -74.7984 H         1 UNK         0.2984 
     87 H87       -70.5064   27.7439  -72.4782 H         1 UNK         0.0554 
     88 H88       -72.2781   27.6015  -70.7918 H         1 UNK         0.0847 
     89 H89       -72.3735   26.1840  -71.8200 H         1 UNK         0.0847 
     90 H90       -73.5220   27.5084  -72.0226 H         1 UNK         0.0847 
     91 H91       -72.6377   26.9943  -74.3508 H         1 UNK         0.3141 
     92 H92       -70.6807   27.2076  -77.2100 H         1 UNK         0.0743 
     93 H93       -71.1984   24.5654  -75.7435 H         1 UNK         0.0784 
     94 H94       -70.9809   24.7427  -77.4846 H         1 UNK         0.0784 
     95 H95       -69.6550   25.1018  -76.3900 H         1 UNK         0.0784 
     96 H96       -73.1048   25.8345  -76.8681 H         1 UNK         0.3213 
     97 H97       -75.3826   28.1535  -76.5478 H         1 UNK         0.0855 
     98 H98       -74.8149   29.6825  -78.4028 H         1 UNK         0.0814 
     99 H99       -76.1202   28.6147  -78.8884 H         1 UNK         0.0814 
    100 H100      -74.4798   28.3278  -79.4688 H         1 UNK         0.0814 
    101 H101      -76.0830   26.1284  -76.9895 H         1 UNK         0.3105 
    102 H102      -76.5126   24.1221  -78.8439 H         1 UNK         0.0547 
    103 H103      -74.6113   23.1222  -80.0575 H         1 UNK         0.0837 
    104 H104      -73.7230   22.8765  -78.5628 H         1 UNK         0.0837 
    105 H105      -75.2075   21.9760  -78.8693 H         1 UNK         0.0837 
    106 H106      -76.8415   23.6849  -76.7020 H         1 UNK         0.3020 
    107 H107      -75.0809   22.9086  -73.9236 H         1 UNK         0.1245 
    108 H108      -75.8151   25.8661  -74.2289 H         1 UNK         0.0781 
    109 H109      -74.1752   25.3375  -73.9663 H         1 UNK         0.0781 
    110 H110      -77.4035   25.3793  -70.7069 H         1 UNK         0.0836 
    111 H111      -77.7810   25.1974  -72.3966 H         1 UNK         0.0836 
    112 H112      -77.5675   24.3342  -74.7587 H         1 UNK         0.3022 
    113 H113      -79.5009   21.4316  -74.7600 H         1 UNK         0.0747 
    114 H114      -80.9458   22.5414  -73.0504 H         1 UNK         0.0793 
    115 H115      -79.5647   21.7538  -72.3036 H         1 UNK         0.0793 
    116 H116      -79.5745   23.4995  -72.4962 H         1 UNK         0.0793 
    117 H117      -80.0732   24.2784  -74.8191 H         1 UNK         0.3047 
    118 H118      -79.3041   24.7441  -78.2399 H         1 UNK         0.0822 
    119 H119      -81.7144   25.2624  -78.5908 H         1 UNK         0.0807 
    120 H120      -82.1443   24.3252  -77.1597 H         1 UNK         0.0807 
    121 H121      -81.4549   23.5263  -78.5650 H         1 UNK         0.0807 
    122 H122      -80.8320   26.3611  -76.4802 H         1 UNK         0.2946 
    123 H123      -78.2486   27.6962  -74.5252 H         1 UNK         0.1144 
    124 H124      -77.7933   28.9160  -76.6656 H         1 UNK         0.0793 
    125 H125      -78.7600   29.8818  -75.5648 H         1 UNK         0.0793 
    126 H126      -79.5212   29.0843  -76.9426 H         1 UNK         0.0793 
    127 H127      -80.8283   28.6979  -74.7989 H         1 UNK         0.2896 
@<TRIPOS>BOND
     1    1    2 1    
     2    1   67 1    
     3    1   68 1    
     4    1   69 1    
     5    2    3 2    
     6    2    4 am   BACKBONE|DICT|INTERRES
     7    4    5 1    
     8    4   70 1    
     9    5    6 1    
    10    5   65 1    
    11    5   71 1    
    12    6    7 1    
    13    6   72 1    
    14    6   73 1    
    15    7    8 1    
    16    8    9 1    
    17    8   74 1    
    18    8   75 1    
    19    9   10 ar   
    20    9   14 ar   
    21   10   11 ar   
    22   10   76 1    
    23   11   12 ar   
    24   11   48 1    
    25   12   13 ar   
    26   12   77 1    
    27   13   14 ar   
    28   13   15 1    
    29   14   78 1    
    30   15   16 1    
    31   15   79 1    
    32   15   80 1    
    33   16   17 1    
    34   17   18 1    
    35   17   81 1    
    36   17   82 1    
    37   18   19 1    
    38   18   22 1    
    39   18   83 1    
    40   19   20 am   BACKBONE|DICT|INTERRES
    41   19   21 2    
    42   20   84 1    
    43   20   85 1    
    44   22   23 am   BACKBONE|DICT|INTERRES
    45   22   86 1    
    46   23   24 2    
    47   23   25 1    
    48   25   26 1    
    49   25   27 1    
    50   25   87 1    
    51   26   88 1    
    52   26   89 1    
    53   26   90 1    
    54   27   28 am   BACKBONE|DICT|INTERRES
    55   27   91 1    
    56   28   29 2    
    57   28   30 1    
    58   30   31 1    
    59   30   32 1    
    60   30   92 1    
    61   31   93 1    
    62   31   94 1    
    63   31   95 1    
    64   32   33 am   BACKBONE|DICT|INTERRES
    65   32   96 1    
    66   33   34 2    
    67   33   35 1    
    68   35   36 1    
    69   35   37 1    
    70   35   97 1    
    71   36   98 1    
    72   36   99 1    
    73   36  100 1    
    74   37   38 am   BACKBONE|DICT|INTERRES
    75   37  101 1    
    76   38   39 2    
    77   38   40 1    
    78   40   41 1    
    79   40   42 1    
    80   40  102 1    
    81   41  103 1    
    82   41  104 1    
    83   41  105 1    
    84   42   43 am   BACKBONE|DICT|INTERRES
    85   42  106 1    
    86   43   44 2    
    87   43   45 1    
    88   45   46 1    
    89   45   49 1    
    90   45  107 1    
    91   46   47 1    
    92   46  108 1    
    93   46  109 1    
    94   47   48 1    
    95   48  110 1    
    96   48  111 1    
    97   49   50 am   BACKBONE|DICT|INTERRES
    98   49  112 1    
    99   50   51 2    
   100   50   52 1    
   101   52   53 1    
   102   52   54 1    
   103   52  113 1    
   104   53  114 1    
   105   53  115 1    
   106   53  116 1    
   107   54   55 am   BACKBONE|DICT|INTERRES
   108   54  117 1    
   109   55   56 2    
   110   55   57 1    
   111   57   58 1    
   112   57   59 1    
   113   57  118 1    
   114   58  119 1    
   115   58  120 1    
   116   58  121 1    
   117   59   60 am   BACKBONE|DICT|INTERRES
   118   59  122 1    
   119   60   61 2    
   120   60   62 1    
   121   62   63 1    
   122   62   64 1    
   123   62  123 1    
   124   63  124 1    
   125   63  125 1    
   126   63  126 1    
   127   64   65 am   BACKBONE|DICT|INTERRES
   128   64  127 1    
   129   65   66 2    
@<TRIPOS>SUBSTRUCTURE
     1 UNK         1 GROUP             0       ****    0 ROOT    
