@<TRIPOS>MOLECULE
3R135
127   129    1
SMALL
USER_CHARGES


@<TRIPOS>ATOM
      1 CA        -74.4983   25.9595  -70.6171 C.3       0 UNK        -0.1998 
      2 C         -75.9079   25.4985  -70.2812 C.2       0 UNK         0.4909 
      3 O         -76.0767   24.5717  -69.4876 O.2       0 UNK        -0.5240 
      4 N         -76.9206   26.1404  -70.8765 N.am      1 UNK        -0.4739 
      5 CA        -78.3344   25.7671  -70.7549 C.3       1 UNK         0.0864 
      6 C6        -79.2682   26.8945  -71.2596 C.3       11 UNK        -0.0881 
      7 S7        -79.0732   28.4269  -70.2892 S.3       11 UNK        -0.2682 
      8 C8        -80.2681   29.5326  -71.1081 C.3       11 UNK         0.0289 
      9 C9        -79.8942   29.8112  -72.5575 C.ar      11 UNK        -0.0687 
     10 C10       -80.7234   29.3815  -73.5973 C.ar      11 UNK        -0.0823 
     11 C11       -80.3810   29.6353  -74.9289 C.ar      11 UNK        -0.0830 
     12 C12       -79.1879   30.3048  -75.2183 C.ar      11 UNK        -0.1021 
     13 C13       -78.3404   30.7209  -74.1873 C.ar      11 UNK        -0.0753 
     14 C14       -78.7151   30.4978  -72.8589 C.ar      11 UNK        -0.0933 
     15 C15       -77.0189   31.4028  -74.5128 C.3       11 UNK         0.0166 
     16 S16       -75.6989   30.1852  -74.8268 S.3       11 UNK        -0.2615 
     17 C17       -75.2882   29.6292  -73.1343 C.3       11 UNK        -0.0865 
     18 CA        -73.8927   30.1098  -72.6551 C.3       10 UNK         0.0862 
     19 C         -73.7271   29.8518  -71.1261 C.2       10 UNK         0.5551 
     20 N         -72.8241   28.9856  -70.6835 N.am      10 UNK        -0.7319 
     21 O         -74.4379   30.4548  -70.3263 O.2       10 UNK        -0.5018 
     22 N         -72.8357   29.5604  -73.5178 N.am      10 UNK        -0.4509 
     23 C         -71.5291   29.8444  -73.4930 C.2       10 UNK         0.4899 
     24 O         -71.0275   30.6743  -72.7337 O.2       10 UNK        -0.4839 
     25 CA        -70.6316   29.0513  -74.4728 C.3       9 UNK         0.0222 
     26 CB        -69.1400   29.1285  -74.0951 C.3       9 UNK        -0.1966 
     27 N         -71.0146   27.6368  -74.6104 N.am      9 UNK        -0.4218 
     28 C         -72.0697   27.1868  -75.3012 C.2       9 UNK         0.5020 
     29 O         -72.8668   27.9327  -75.8760 O.2       9 UNK        -0.5274 
     30 CA        -72.3219   25.6717  -75.2901 C.3       8 UNK         0.0270 
     31 CB        -73.1388   25.2758  -74.0488 C.3       8 UNK        -0.1976 
     32 N         -73.0839   25.3233  -76.4845 N.am      8 UNK        -0.4313 
     33 C         -72.5395   25.0572  -77.6789 C.2       8 UNK         0.5041 
     34 O         -71.3499   24.7889  -77.8529 O.2       8 UNK        -0.5577 
     35 CA        -73.4741   25.1855  -78.8899 C.3       7 UNK         0.0284 
     36 CB        -74.3855   23.9555  -79.0305 C.3       7 UNK        -0.1958 
     37 N         -74.2832   26.3973  -78.7525 N.am      7 UNK        -0.4454 
     38 C         -73.9004   27.6210  -79.1423 C.2       7 UNK         0.5089 
     39 O         -72.8909   27.8298  -79.8173 O.2       7 UNK        -0.5125 
     40 CA        -74.7541   28.8251  -78.6832 C.3       6 UNK         0.0408 
     41 CB        -75.0773   29.7835  -79.8484 C.3       6 UNK        -0.1791 
     42 N         -75.9664   28.4733  -77.9291 N.am      6 UNK        -0.4762 
     43 C         -77.0504   27.8243  -78.3791 C.2       6 UNK         0.5007 
     44 O         -77.1965   27.4476  -79.5432 O.2       6 UNK        -0.5032 
     45 CA        -78.1310   27.4830  -77.3358 C.3       5 UNK         0.0783 
     46 C46       -79.5327   27.9074  -77.8431 C.3       11 UNK        -0.0857 
     47 S47       -80.8734   27.5336  -76.6600 S.3       11 UNK        -0.2512 
     48 C48       -81.3095   29.1902  -76.0478 C.3       11 UNK         0.0225 
     49 N         -78.1009   26.0612  -76.9872 N.am      5 UNK        -0.4615 
     50 C         -77.0739   25.3551  -76.4996 C.2       4 UNK         0.5053 
     51 O         -75.9357   25.8078  -76.3572 O.2       4 UNK        -0.5105 
     52 CA        -77.3808   23.8997  -76.0927 C.3       4 UNK         0.0263 
     53 CB        -76.2526   23.2779  -75.2472 C.3       4 UNK        -0.1981 
     54 N         -78.6463   23.8017  -75.3537 N.am      4 UNK        -0.4224 
     55 C         -79.8636   23.7081  -75.9132 C.2       3 UNK         0.4895 
     56 O         -80.0304   23.6784  -77.1334 O.2       3 UNK        -0.5091 
     57 CA        -81.1031   23.7169  -74.9904 C.3       3 UNK         0.0250 
     58 CB        -82.2389   22.8168  -75.5226 C.3       3 UNK        -0.1996 
     59 N         -80.8168   23.4305  -73.5793 N.am      3 UNK        -0.4254 
     60 C         -80.3253   22.2972  -73.0548 C.2       2 UNK         0.5004 
     61 O         -80.1241   21.2702  -73.7049 O.2       2 UNK        -0.5226 
     62 CA        -79.9707   22.3372  -71.5508 C.3       2 UNK         0.0269 
     63 CB        -78.8833   21.3043  -71.1839 C.3       2 UNK        -0.1926 
     64 N         -79.5846   23.6683  -71.0447 N.am      2 UNK        -0.4687 
     65 C         -78.6074   24.4570  -71.5209 C.2       1 UNK         0.5165 
     66 O         -77.9682   24.2077  -72.5454 O.2       1 UNK        -0.5079 
     67 H67       -73.8871   25.1080  -70.9148 H         1 UNK         0.0900 
     68 H68       -74.0376   26.4219  -69.7448 H         1 UNK         0.0900 
     69 H69       -74.4905   26.6818  -71.4325 H         1 UNK         0.0900 
     70 H70       -76.7282   26.8909  -71.5219 H         1 UNK         0.2959 
     71 H71       -78.5440   25.5884  -69.6977 H         1 UNK         0.1079 
     72 H72       -79.0713   27.1117  -72.3118 H         1 UNK         0.0837 
     73 H73       -80.3146   26.5894  -71.1966 H         1 UNK         0.0837 
     74 H74       -81.2655   29.0960  -71.0368 H         1 UNK         0.0685 
     75 H75       -80.3061   30.4766  -70.5629 H         1 UNK         0.0685 
     76 H76       -81.6393   28.8525  -73.3714 H         1 UNK         0.1434 
     77 H77       -78.9113   30.4943  -76.2461 H         1 UNK         0.1329 
     78 H78       -78.0812   30.8361  -72.0513 H         1 UNK         0.1335 
     79 H79       -77.1377   32.0275  -75.3993 H         1 UNK         0.0680 
     80 H80       -76.7187   32.0734  -73.7060 H         1 UNK         0.0680 
     81 H81       -75.3398   28.5394  -73.1158 H         1 UNK         0.1032 
     82 H82       -76.0602   29.9701  -72.4466 H         1 UNK         0.1032 
     83 H83       -73.8541   31.1941  -72.7738 H         1 UNK         0.0461 
     84 H84       -72.2111   28.5154  -71.3283 H         1 UNK         0.3453 
     85 H85       -72.7218   28.8447  -69.6913 H         1 UNK         0.3453 
     86 H86       -73.1468   28.9254  -74.2466 H         1 UNK         0.2984 
     87 H87       -70.7454   29.5280  -75.4488 H         1 UNK         0.0554 
     88 H88       -68.5179   28.6028  -74.8198 H         1 UNK         0.0847 
     89 H89       -68.9499   28.6970  -73.1116 H         1 UNK         0.0847 
     90 H90       -68.7934   30.1626  -74.0698 H         1 UNK         0.0847 
     91 H91       -70.4328   26.9665  -74.1277 H         1 UNK         0.3141 
     92 H92       -71.3674   25.1411  -75.2817 H         1 UNK         0.0743 
     93 H93       -72.5983   25.5129  -73.1319 H         1 UNK         0.0784 
     94 H94       -73.3440   24.2052  -74.0359 H         1 UNK         0.0784 
     95 H95       -74.0963   25.7982  -74.0114 H         1 UNK         0.0784 
     96 H96       -74.0697   25.5743  -76.4527 H         1 UNK         0.3213 
     97 H97       -72.8599   25.2567  -79.7904 H         1 UNK         0.0855 
     98 H98       -73.7938   23.0487  -79.1621 H         1 UNK         0.0814 
     99 H99       -75.0385   24.0456  -79.8988 H         1 UNK         0.0814 
    100 H100      -75.0145   23.8078  -78.1540 H         1 UNK         0.0814 
    101 H101      -75.0961   26.3369  -78.1505 H         1 UNK         0.3105 
    102 H102      -74.1281   29.3736  -77.9777 H         1 UNK         0.0547 
    103 H103      -75.6421   29.2891  -80.6390 H         1 UNK         0.0837 
    104 H104      -74.1631   30.1695  -80.3006 H         1 UNK         0.0837 
    105 H105      -75.6549   30.6426  -79.5077 H         1 UNK         0.0837 
    106 H106      -75.9148   28.6881  -76.9403 H         1 UNK         0.3020 
    107 H107      -77.9167   28.0380  -76.4201 H         1 UNK         0.1245 
    108 H108      -79.7732   27.3883  -78.7732 H         1 UNK         0.0781 
    109 H109      -79.5447   28.9707  -78.0876 H         1 UNK         0.0781 
    110 H110      -82.3380   29.1641  -75.6843 H         1 UNK         0.0836 
    111 H111      -81.3033   29.9134  -76.8645 H         1 UNK         0.0836 
    112 H112      -78.9787   25.5716  -77.1072 H         1 UNK         0.3022 
    113 H113      -77.4600   23.3188  -77.0139 H         1 UNK         0.0747 
    114 H114      -76.4998   22.2613  -74.9412 H         1 UNK         0.0793 
    115 H115      -75.3186   23.2286  -75.8074 H         1 UNK         0.0793 
    116 H116      -76.0575   23.8599  -74.3458 H         1 UNK         0.0793 
    117 H117      -78.5689   23.8715  -74.3416 H         1 UNK         0.3047 
    118 H118      -81.4697   24.7445  -75.0121 H         1 UNK         0.0822 
    119 H119      -83.1115   22.8504  -74.8703 H         1 UNK         0.0807 
    120 H120      -81.9250   21.7765  -75.6115 H         1 UNK         0.0807 
    121 H121      -82.5650   23.1409  -76.5117 H         1 UNK         0.0807 
    122 H122      -80.9392   24.2091  -72.9475 H         1 UNK         0.2946 
    123 H123      -80.8846   22.0561  -71.0245 H         1 UNK         0.1144 
    124 H124      -79.2034   20.2901  -71.4264 H         1 UNK         0.0793 
    125 H125      -78.6608   21.3236  -70.1171 H         1 UNK         0.0793 
    126 H126      -77.9537   21.4906  -71.7233 H         1 UNK         0.0793 
    127 H127      -80.0846   23.9750  -70.2206 H         1 UNK         0.2896 
@<TRIPOS>BOND
     1    1    2 1    
     2    1   67 1    
     3    1   68 1    
     4    1   69 1    
     5    2    3 2    
     6    2    4 am   BACKBONE|DICT|INTERRES
     7    4    5 1    
     8    4   70 1    
     9    5    6 1    
    10    5   65 1    
    11    5   71 1    
    12    6    7 1    
    13    6   72 1    
    14    6   73 1    
    15    7    8 1    
    16    8    9 1    
    17    8   74 1    
    18    8   75 1    
    19    9   10 ar   
    20    9   14 ar   
    21   10   11 ar   
    22   10   76 1    
    23   11   12 ar   
    24   11   48 1    
    25   12   13 ar   
    26   12   77 1    
    27   13   14 ar   
    28   13   15 1    
    29   14   78 1    
    30   15   16 1    
    31   15   79 1    
    32   15   80 1    
    33   16   17 1    
    34   17   18 1    
    35   17   81 1    
    36   17   82 1    
    37   18   19 1    
    38   18   22 1    
    39   18   83 1    
    40   19   20 am   BACKBONE|DICT|INTERRES
    41   19   21 2    
    42   20   84 1    
    43   20   85 1    
    44   22   23 am   BACKBONE|DICT|INTERRES
    45   22   86 1    
    46   23   24 2    
    47   23   25 1    
    48   25   26 1    
    49   25   27 1    
    50   25   87 1    
    51   26   88 1    
    52   26   89 1    
    53   26   90 1    
    54   27   28 am   BACKBONE|DICT|INTERRES
    55   27   91 1    
    56   28   29 2    
    57   28   30 1    
    58   30   31 1    
    59   30   32 1    
    60   30   92 1    
    61   31   93 1    
    62   31   94 1    
    63   31   95 1    
    64   32   33 am   BACKBONE|DICT|INTERRES
    65   32   96 1    
    66   33   34 2    
    67   33   35 1    
    68   35   36 1    
    69   35   37 1    
    70   35   97 1    
    71   36   98 1    
    72   36   99 1    
    73   36  100 1    
    74   37   38 am   BACKBONE|DICT|INTERRES
    75   37  101 1    
    76   38   39 2    
    77   38   40 1    
    78   40   41 1    
    79   40   42 1    
    80   40  102 1    
    81   41  103 1    
    82   41  104 1    
    83   41  105 1    
    84   42   43 am   BACKBONE|DICT|INTERRES
    85   42  106 1    
    86   43   44 2    
    87   43   45 1    
    88   45   46 1    
    89   45   49 1    
    90   45  107 1    
    91   46   47 1    
    92   46  108 1    
    93   46  109 1    
    94   47   48 1    
    95   48  110 1    
    96   48  111 1    
    97   49   50 am   BACKBONE|DICT|INTERRES
    98   49  112 1    
    99   50   51 2    
   100   50   52 1    
   101   52   53 1    
   102   52   54 1    
   103   52  113 1    
   104   53  114 1    
   105   53  115 1    
   106   53  116 1    
   107   54   55 am   BACKBONE|DICT|INTERRES
   108   54  117 1    
   109   55   56 2    
   110   55   57 1    
   111   57   58 1    
   112   57   59 1    
   113   57  118 1    
   114   58  119 1    
   115   58  120 1    
   116   58  121 1    
   117   59   60 am   BACKBONE|DICT|INTERRES
   118   59  122 1    
   119   60   61 2    
   120   60   62 1    
   121   62   63 1    
   122   62   64 1    
   123   62  123 1    
   124   63  124 1    
   125   63  125 1    
   126   63  126 1    
   127   64   65 am   BACKBONE|DICT|INTERRES
   128   64  127 1    
   129   65   66 2    
@<TRIPOS>SUBSTRUCTURE
     1 UNK         1 GROUP             0       ****    0 ROOT    
