@<TRIPOS>MOLECULE
3R135
127   129    1
SMALL
USER_CHARGES


@<TRIPOS>ATOM
      1 CA        -81.5354   21.8989  -69.5196 C.3       0 UNK        -0.1998 
      2 C         -81.8138   23.2683  -70.1206 C.2       0 UNK         0.4909 
      3 O         -82.7874   23.9184  -69.7392 O.2       0 UNK        -0.5240 
      4 N         -80.9668   23.7112  -71.0595 N.am      1 UNK        -0.4739 
      5 CA        -81.0730   25.0117  -71.7379 C.3       1 UNK         0.0864 
      6 C6        -79.7418   25.4192  -72.4179 C.3       11 UNK        -0.0881 
      7 S7        -78.3786   25.5725  -71.2154 S.3       11 UNK        -0.2682 
      8 C8        -78.3534   27.3682  -70.9132 C.3       11 UNK         0.0289 
      9 C9        -77.6708   28.1220  -72.0449 C.ar      11 UNK        -0.0687 
     10 C10       -78.4242   28.8080  -73.0024 C.ar      11 UNK        -0.0823 
     11 C11       -77.7917   29.4918  -74.0452 C.ar      11 UNK        -0.0830 
     12 C12       -76.3942   29.5069  -74.1123 C.ar      11 UNK        -0.1021 
     13 C13       -75.6322   28.8158  -73.1661 C.ar      11 UNK        -0.0753 
     14 C14       -76.2761   28.1303  -72.1327 C.ar      11 UNK        -0.0933 
     15 C15       -74.1161   28.7701  -73.2729 C.3       11 UNK         0.0166 
     16 S16       -73.3277   30.0212  -72.2109 S.3       11 UNK        -0.2615 
     17 C17       -73.4623   31.5212  -73.2487 C.3       11 UNK        -0.0865 
     18 CA        -72.0930   32.1374  -73.6447 C.3       10 UNK         0.0862 
     19 C         -71.4403   32.9389  -72.4797 C.2       10 UNK         0.5551 
     20 N         -70.2124   32.6407  -72.0714 N.am      10 UNK        -0.7319 
     21 O         -72.0531   33.8630  -71.9502 O.2       10 UNK        -0.5018 
     22 N         -71.2081   31.1403  -74.2704 N.am      10 UNK        -0.4509 
     23 C         -70.3234   31.3900  -75.2432 C.2       10 UNK         0.4899 
     24 O         -70.1942   32.4953  -75.7712 O.2       10 UNK        -0.4839 
     25 CA        -69.4076   30.2352  -75.7059 C.3       9 UNK         0.0222 
     26 CB        -67.9260   30.6402  -75.6018 C.3       9 UNK        -0.1966 
     27 N         -69.5961   28.9672  -74.9888 N.am      9 UNK        -0.4218 
     28 C         -70.6184   28.1209  -75.1652 C.2       9 UNK         0.5020 
     29 O         -71.5566   28.3312  -75.9360 O.2       9 UNK        -0.5274 
     30 CA        -70.5881   26.8325  -74.3323 C.3       8 UNK         0.0270 
     31 CB        -70.5994   27.1175  -72.8155 C.3       8 UNK        -0.1976 
     32 N         -71.7297   26.0018  -74.7093 N.am      8 UNK        -0.4313 
     33 C         -71.8295   24.6815  -74.5173 C.2       8 UNK         0.5041 
     34 O         -70.9765   24.0134  -73.9302 O.2       8 UNK        -0.5577 
     35 CA        -73.0804   23.9667  -75.0662 C.3       7 UNK         0.0284 
     36 CB        -74.1109   23.7663  -73.9426 C.3       7 UNK        -0.1958 
     37 N         -73.7352   24.6315  -76.1982 N.am      7 UNK        -0.4454 
     38 C         -73.1779   24.8838  -77.3932 C.2       7 UNK         0.5089 
     39 O         -72.0196   24.5785  -77.6785 O.2       7 UNK        -0.5125 
     40 CA        -74.0494   25.5742  -78.4653 C.3       6 UNK         0.0408 
     41 CB        -74.2460   24.6508  -79.6795 C.3       6 UNK        -0.1791 
     42 N         -75.3666   26.0035  -77.9854 N.am      6 UNK        -0.4762 
     43 C         -75.5950   27.0220  -77.1437 C.2       6 UNK         0.5007 
     44 O         -74.7070   27.7609  -76.7231 O.2       6 UNK        -0.5032 
     45 CA        -77.0425   27.2339  -76.6552 C.3       5 UNK         0.0783 
     46 C46       -77.6303   28.5570  -77.2048 C.3       11 UNK        -0.0857 
     47 S47       -79.1979   29.0050  -76.3831 S.3       11 UNK        -0.2512 
     48 C48       -78.6222   30.1845  -75.1161 C.3       11 UNK         0.0225 
     49 N         -77.9249   26.0926  -76.9193 N.am      5 UNK        -0.4615 
     50 C         -77.8626   24.9087  -76.3007 C.2       4 UNK         0.5053 
     51 O         -76.9798   24.6177  -75.4932 O.2       4 UNK        -0.5105 
     52 CA        -78.9710   23.8942  -76.6467 C.3       4 UNK         0.0263 
     53 CB        -78.9062   22.6265  -75.7740 C.3       4 UNK        -0.1981 
     54 N         -80.3101   24.4800  -76.5321 N.am      4 UNK        -0.4224 
     55 C         -80.9036   25.2806  -77.4291 C.2       3 UNK         0.4895 
     56 O         -80.3581   25.6290  -78.4776 O.2       3 UNK        -0.5091 
     57 CA        -82.3055   25.8310  -77.0925 C.3       3 UNK         0.0250 
     58 CB        -83.2744   25.7126  -78.2877 C.3       3 UNK        -0.1996 
     59 N         -82.9019   25.2836  -75.8643 N.am      3 UNK        -0.4254 
     60 C         -83.3102   24.0295  -75.6222 C.2       2 UNK         0.5004 
     61 O         -83.2522   23.1144  -76.4445 O.2       2 UNK        -0.5226 
     62 CA        -83.8011   23.7500  -74.1885 C.3       2 UNK         0.0269 
     63 CB        -84.4101   22.3436  -74.0338 C.3       2 UNK        -0.1926 
     64 N         -82.7170   23.9024  -73.2125 N.am      2 UNK        -0.4687 
     65 C         -82.2329   25.0668  -72.7549 C.2       1 UNK         0.5165 
     66 O         -82.6576   26.1626  -73.1253 O.2       1 UNK        -0.5079 
     67 H67       -80.6434   21.4400  -69.9457 H         1 UNK         0.0900 
     68 H68       -82.3785   21.2322  -69.6982 H         1 UNK         0.0900 
     69 H69       -81.3905   21.9847  -68.4430 H         1 UNK         0.0900 
     70 H70       -80.1653   23.1503  -71.3122 H         1 UNK         0.2959 
     71 H71       -81.3036   25.7634  -70.9792 H         1 UNK         0.1079 
     72 H72       -79.4495   24.6813  -73.1664 H         1 UNK         0.0837 
     73 H73       -79.8506   26.3606  -72.9584 H         1 UNK         0.0837 
     74 H74       -79.3710   27.7307  -70.7591 H         1 UNK         0.0685 
     75 H75       -77.8190   27.5587  -69.9813 H         1 UNK         0.0685 
     76 H76       -79.5044   28.7965  -72.9488 H         1 UNK         0.1434 
     77 H77       -75.9000   30.0231  -74.9236 H         1 UNK         0.1329 
     78 H78       -75.6907   27.5921  -71.3996 H         1 UNK         0.1335 
     79 H79       -73.7696   27.7804  -72.9731 H         1 UNK         0.0680 
     80 H80       -73.7944   28.8986  -74.3077 H         1 UNK         0.0680 
     81 H81       -74.0857   32.2507  -72.7280 H         1 UNK         0.1032 
     82 H82       -74.0109   31.2822  -74.1596 H         1 UNK         0.1032 
     83 H83       -72.3162   32.8937  -74.3997 H         1 UNK         0.0461 
     84 H84       -69.7004   31.8896  -72.5038 H         1 UNK         0.3453 
     85 H85       -69.7977   33.1713  -71.3216 H         1 UNK         0.3453 
     86 H86       -71.2614   30.2088  -73.8870 H         1 UNK         0.2984 
     87 H87       -69.6328   30.0618  -76.7603 H         1 UNK         0.0554 
     88 H88       -67.2716   29.8601  -75.9912 H         1 UNK         0.0847 
     89 H89       -67.6332   30.8422  -74.5708 H         1 UNK         0.0847 
     90 H90       -67.7219   31.5428  -76.1797 H         1 UNK         0.0847 
     91 H91       -68.8728   28.7167  -74.3293 H         1 UNK         0.3141 
     92 H92       -69.6710   26.2990  -74.5915 H         1 UNK         0.0743 
     93 H93       -71.4795   27.6820  -72.5139 H         1 UNK         0.0784 
     94 H94       -70.5864   26.1942  -72.2363 H         1 UNK         0.0784 
     95 H95       -69.7247   27.6916  -72.5091 H         1 UNK         0.0784 
     96 H96       -72.4262   26.4842  -75.2675 H         1 UNK         0.3213 
     97 H97       -72.7576   22.9827  -75.4125 H         1 UNK         0.0855 
     98 H98       -74.5197   24.7166  -73.5958 H         1 UNK         0.0814 
     99 H99       -73.6624   23.2692  -73.0812 H         1 UNK         0.0814 
    100 H100      -74.9440   23.1458  -74.2736 H         1 UNK         0.0814 
    101 H101      -74.7054   24.8875  -76.0649 H         1 UNK         0.3105 
    102 H102      -73.5047   26.4606  -78.7969 H         1 UNK         0.0547 
    103 H103      -73.2866   24.3484  -80.1019 H         1 UNK         0.0837 
    104 H104      -74.7841   23.7406  -79.4119 H         1 UNK         0.0837 
    105 H105      -74.8013   25.1500  -80.4737 H         1 UNK         0.0837 
    106 H106      -76.1587   25.4484  -78.2757 H         1 UNK         0.3020 
    107 H107      -76.9668   27.3155  -75.5699 H         1 UNK         0.1245 
    108 H108      -77.8156   28.4734  -78.2772 H         1 UNK         0.0781 
    109 H109      -76.9255   29.3823  -77.0882 H         1 UNK         0.0781 
    110 H110      -79.4900   30.6593  -74.6559 H         1 UNK         0.0836 
    111 H111      -78.0543   30.9871  -75.5893 H         1 UNK         0.0836 
    112 H112      -78.6854   26.2446  -77.5744 H         1 UNK         0.3022 
    113 H113      -78.8122   23.5904  -77.6835 H         1 UNK         0.0747 
    114 H114      -79.6759   21.9089  -76.0591 H         1 UNK         0.0793 
    115 H115      -77.9434   22.1254  -75.8840 H         1 UNK         0.0793 
    116 H116      -79.0345   22.8540  -74.7156 H         1 UNK         0.0793 
    117 H117      -80.8278   24.2562  -75.6962 H         1 UNK         0.3047 
    118 H118      -82.1590   26.8946  -76.8970 H         1 UNK         0.0822 
    119 H119      -84.2522   26.1310  -78.0494 H         1 UNK         0.0807 
    120 H120      -83.4175   24.6764  -78.5951 H         1 UNK         0.0807 
    121 H121      -82.8948   26.2556  -79.1542 H         1 UNK         0.0807 
    122 H122      -82.9400   25.9264  -75.0774 H         1 UNK         0.2946 
    123 H123      -84.5847   24.4783  -73.9655 H         1 UNK         0.1144 
    124 H124      -84.8075   22.1923  -73.0300 H         1 UNK         0.0793 
    125 H125      -83.6762   21.5598  -74.2258 H         1 UNK         0.0793 
    126 H126      -85.2350   22.1965  -74.7324 H         1 UNK         0.0793 
    127 H127      -82.3007   23.0511  -72.8632 H         1 UNK         0.2896 
@<TRIPOS>BOND
     1    1    2 1    
     2    1   67 1    
     3    1   68 1    
     4    1   69 1    
     5    2    3 2    
     6    2    4 am   BACKBONE|DICT|INTERRES
     7    4    5 1    
     8    4   70 1    
     9    5    6 1    
    10    5   65 1    
    11    5   71 1    
    12    6    7 1    
    13    6   72 1    
    14    6   73 1    
    15    7    8 1    
    16    8    9 1    
    17    8   74 1    
    18    8   75 1    
    19    9   10 ar   
    20    9   14 ar   
    21   10   11 ar   
    22   10   76 1    
    23   11   12 ar   
    24   11   48 1    
    25   12   13 ar   
    26   12   77 1    
    27   13   14 ar   
    28   13   15 1    
    29   14   78 1    
    30   15   16 1    
    31   15   79 1    
    32   15   80 1    
    33   16   17 1    
    34   17   18 1    
    35   17   81 1    
    36   17   82 1    
    37   18   19 1    
    38   18   22 1    
    39   18   83 1    
    40   19   20 am   BACKBONE|DICT|INTERRES
    41   19   21 2    
    42   20   84 1    
    43   20   85 1    
    44   22   23 am   BACKBONE|DICT|INTERRES
    45   22   86 1    
    46   23   24 2    
    47   23   25 1    
    48   25   26 1    
    49   25   27 1    
    50   25   87 1    
    51   26   88 1    
    52   26   89 1    
    53   26   90 1    
    54   27   28 am   BACKBONE|DICT|INTERRES
    55   27   91 1    
    56   28   29 2    
    57   28   30 1    
    58   30   31 1    
    59   30   32 1    
    60   30   92 1    
    61   31   93 1    
    62   31   94 1    
    63   31   95 1    
    64   32   33 am   BACKBONE|DICT|INTERRES
    65   32   96 1    
    66   33   34 2    
    67   33   35 1    
    68   35   36 1    
    69   35   37 1    
    70   35   97 1    
    71   36   98 1    
    72   36   99 1    
    73   36  100 1    
    74   37   38 am   BACKBONE|DICT|INTERRES
    75   37  101 1    
    76   38   39 2    
    77   38   40 1    
    78   40   41 1    
    79   40   42 1    
    80   40  102 1    
    81   41  103 1    
    82   41  104 1    
    83   41  105 1    
    84   42   43 am   BACKBONE|DICT|INTERRES
    85   42  106 1    
    86   43   44 2    
    87   43   45 1    
    88   45   46 1    
    89   45   49 1    
    90   45  107 1    
    91   46   47 1    
    92   46  108 1    
    93   46  109 1    
    94   47   48 1    
    95   48  110 1    
    96   48  111 1    
    97   49   50 am   BACKBONE|DICT|INTERRES
    98   49  112 1    
    99   50   51 2    
   100   50   52 1    
   101   52   53 1    
   102   52   54 1    
   103   52  113 1    
   104   53  114 1    
   105   53  115 1    
   106   53  116 1    
   107   54   55 am   BACKBONE|DICT|INTERRES
   108   54  117 1    
   109   55   56 2    
   110   55   57 1    
   111   57   58 1    
   112   57   59 1    
   113   57  118 1    
   114   58  119 1    
   115   58  120 1    
   116   58  121 1    
   117   59   60 am   BACKBONE|DICT|INTERRES
   118   59  122 1    
   119   60   61 2    
   120   60   62 1    
   121   62   63 1    
   122   62   64 1    
   123   62  123 1    
   124   63  124 1    
   125   63  125 1    
   126   63  126 1    
   127   64   65 am   BACKBONE|DICT|INTERRES
   128   64  127 1    
   129   65   66 2    
@<TRIPOS>SUBSTRUCTURE
     1 UNK         1 GROUP             0       ****    0 ROOT    
