@<TRIPOS>MOLECULE
3R135
127   129    1
SMALL
USER_CHARGES


@<TRIPOS>ATOM
      1 CA        -84.2744   26.0628  -74.2023 C.3       0 UNK        -0.1998 
      2 C         -82.8490   26.5881  -74.1422 C.2       0 UNK         0.4909 
      3 O         -81.9171   25.8634  -74.4915 O.2       0 UNK        -0.5240 
      4 N         -82.6689   27.8429  -73.7092 N.am      1 UNK        -0.4739 
      5 CA        -81.3771   28.5325  -73.5856 C.3       1 UNK         0.0864 
      6 C6        -80.4775   27.9353  -72.4672 C.3       11 UNK        -0.0881 
      7 S7        -81.2298   28.1234  -70.8134 S.3       11 UNK        -0.2682 
      8 C8        -80.1098   27.1223  -69.7676 C.3       11 UNK         0.0289 
      9 C9        -78.6283   27.4835  -69.8821 C.ar      11 UNK        -0.0687 
     10 C10       -77.6652   26.4798  -69.7343 C.ar      11 UNK        -0.0823 
     11 C11       -76.3059   26.7628  -69.9062 C.ar      11 UNK        -0.0830 
     12 C12       -75.9088   28.0620  -70.2316 C.ar      11 UNK        -0.1021 
     13 C13       -76.8596   29.0741  -70.3768 C.ar      11 UNK        -0.0753 
     14 C14       -78.2083   28.7900  -70.1584 C.ar      11 UNK        -0.0933 
     15 C15       -76.4443   30.4646  -70.8250 C.3       11 UNK         0.0166 
     16 S16       -76.9327   30.7801  -72.5551 S.3       11 UNK        -0.2615 
     17 C17       -75.9330   29.5667  -73.4890 C.3       11 UNK        -0.0865 
     18 CA        -74.6133   30.1842  -74.0159 C.3       10 UNK         0.0862 
     19 C         -73.5035   30.2021  -72.9330 C.2       10 UNK         0.5551 
     20 N         -73.0807   31.3772  -72.4877 N.am      10 UNK        -0.7319 
     21 O         -73.0529   29.1565  -72.4708 O.2       10 UNK        -0.5018 
     22 N         -74.1317   29.4847  -75.2119 N.am      10 UNK        -0.4509 
     23 C         -73.3945   30.0721  -76.1645 C.2       10 UNK         0.4899 
     24 O         -73.1707   31.2833  -76.2106 O.2       10 UNK        -0.4839 
     25 CA        -72.7972   29.1393  -77.2332 C.3       9 UNK         0.0222 
     26 CB        -71.8390   29.8580  -78.2066 C.3       9 UNK        -0.1966 
     27 N         -72.1529   27.9649  -76.6385 N.am      9 UNK        -0.4218 
     28 C         -71.1340   27.9344  -75.7630 C.2       9 UNK         0.5020 
     29 O         -70.5220   28.9324  -75.3804 O.2       9 UNK        -0.5274 
     30 CA        -70.7300   26.5579  -75.2005 C.3       8 UNK         0.0270 
     31 CB        -71.1382   26.4442  -73.7221 C.3       8 UNK        -0.1976 
     32 N         -71.3296   25.4472  -75.9434 N.am      8 UNK        -0.4313 
     33 C         -70.8411   24.9379  -77.0824 C.2       8 UNK         0.5041 
     34 O         -69.7698   25.2798  -77.5840 O.2       8 UNK        -0.5577 
     35 CA        -71.7102   23.8873  -77.7970 C.3       7 UNK         0.0284 
     36 CB        -71.3224   22.4698  -77.3457 C.3       7 UNK        -0.1958 
     37 N         -73.1497   24.0878  -77.5921 N.am      7 UNK        -0.4454 
     38 C         -73.8508   25.1344  -78.0540 C.2       7 UNK         0.5089 
     39 O         -73.3613   26.0487  -78.7146 O.2       7 UNK        -0.5125 
     40 CA        -75.3382   25.1942  -77.6715 C.3       6 UNK         0.0408 
     41 CB        -76.1690   24.3832  -78.6778 C.3       6 UNK        -0.1791 
     42 N         -75.5977   24.7076  -76.3131 N.am      6 UNK        -0.4762 
     43 C         -75.1434   25.2755  -75.1834 C.2       6 UNK         0.5007 
     44 O         -74.4810   26.3166  -75.1684 O.2       6 UNK        -0.5032 
     45 CA        -75.4538   24.5198  -73.8690 C.3       5 UNK         0.0783 
     46 C46       -75.2576   25.3877  -72.5973 C.3       11 UNK        -0.0857 
     47 S47       -75.4426   24.3944  -71.0761 S.3       11 UNK        -0.2512 
     48 C48       -75.2656   25.6595  -69.7789 C.3       11 UNK         0.0225 
     49 N         -76.7541   23.8318  -73.9209 N.am      5 UNK        -0.4615 
     50 C         -77.9526   24.4216  -74.0058 C.2       4 UNK         0.5053 
     51 O         -78.1293   25.6429  -74.0168 O.2       4 UNK        -0.5105 
     52 CA        -79.1647   23.4846  -74.1227 C.3       4 UNK         0.0263 
     53 CB        -79.9666   23.4672  -72.8115 C.3       4 UNK        -0.1981 
     54 N         -80.0144   23.9631  -75.2085 N.am      4 UNK        -0.4224 
     55 C         -79.7322   23.8090  -76.5107 C.2       3 UNK         0.4895 
     56 O         -78.9139   22.9979  -76.9444 O.2       3 UNK        -0.5091 
     57 CA        -80.3931   24.8099  -77.4699 C.3       3 UNK         0.0250 
     58 CB        -81.9008   24.5496  -77.6269 C.3       3 UNK        -0.1996 
     59 N         -80.1507   26.1516  -76.9358 N.am      3 UNK        -0.4254 
     60 C         -79.1269   26.9336  -77.3079 C.2       2 UNK         0.5004 
     61 O         -78.5123   26.7896  -78.3646 O.2       2 UNK        -0.5226 
     62 CA        -78.6477   28.0116  -76.3159 C.3       2 UNK         0.0269 
     63 CB        -78.4074   29.3817  -76.9846 C.3       2 UNK        -0.1926 
     64 N         -79.4631   28.1161  -75.0981 N.am      2 UNK        -0.4687 
     65 C         -80.6898   28.6440  -74.9674 C.2       1 UNK         0.5165 
     66 O         -81.3039   29.1844  -75.8892 O.2       1 UNK        -0.5079 
     67 H67       -84.9961   26.7999  -73.8511 H         1 UNK         0.0900 
     68 H68       -84.5311   25.7954  -75.2269 H         1 UNK         0.0900 
     69 H69       -84.3696   25.1715  -73.5829 H         1 UNK         0.0900 
     70 H70       -83.4753   28.3978  -73.4593 H         1 UNK         0.2959 
     71 H71       -81.6059   29.5618  -73.3039 H         1 UNK         0.1079 
     72 H72       -79.5138   28.4450  -72.4540 H         1 UNK         0.0837 
     73 H73       -80.2669   26.8797  -72.6445 H         1 UNK         0.0837 
     74 H74       -80.2574   26.0733  -70.0300 H         1 UNK         0.0685 
     75 H75       -80.4158   27.2284  -68.7263 H         1 UNK         0.0685 
     76 H76       -77.9722   25.4664  -69.5136 H         1 UNK         0.1434 
     77 H77       -74.8629   28.2799  -70.4029 H         1 UNK         0.1329 
     78 H78       -78.9345   29.5825  -70.2720 H         1 UNK         0.1335 
     79 H79       -76.9206   31.2074  -70.1835 H         1 UNK         0.0680 
     80 H80       -75.3695   30.6081  -70.7102 H         1 UNK         0.0680 
     81 H81       -75.7557   28.6607  -72.9091 H         1 UNK         0.1032 
     82 H82       -76.5505   29.2497  -74.3300 H         1 UNK         0.1032 
     83 H83       -74.8338   31.2144  -74.3049 H         1 UNK         0.0461 
     84 H84       -72.3665   31.4042  -71.7774 H         1 UNK         0.3453 
     85 H85       -73.4494   32.2373  -72.8624 H         1 UNK         0.3453 
     86 H86       -74.2157   28.4739  -75.2078 H         1 UNK         0.2984 
     87 H87       -73.6390   28.7638  -77.8168 H         1 UNK         0.0554 
     88 H88       -72.3497   30.6664  -78.7311 H         1 UNK         0.0847 
     89 H89       -71.4569   29.1725  -78.9630 H         1 UNK         0.0847 
     90 H90       -70.9853   30.2958  -77.6882 H         1 UNK         0.0847 
     91 H91       -72.5667   27.0807  -76.9030 H         1 UNK         0.3141 
     92 H92       -69.6421   26.4825  -75.2610 H         1 UNK         0.0743 
     93 H93       -70.6592   27.2217  -73.1252 H         1 UNK         0.0784 
     94 H94       -72.2143   26.5602  -73.5919 H         1 UNK         0.0784 
     95 H95       -70.8460   25.4836  -73.2977 H         1 UNK         0.0784 
     96 H96       -72.2216   25.1117  -75.6103 H         1 UNK         0.3213 
     97 H97       -71.5104   23.9724  -78.8676 H         1 UNK         0.0855 
     98 H98       -71.5183   22.3133  -76.2842 H         1 UNK         0.0814 
     99 H99       -70.2596   22.2863  -77.5106 H         1 UNK         0.0814 
    100 H100      -71.8695   21.7108  -77.9052 H         1 UNK         0.0814 
    101 H101      -73.6419   23.3778  -77.0694 H         1 UNK         0.3105 
    102 H102      -75.6583   26.2373  -77.7210 H         1 UNK         0.0547 
    103 H103      -76.0154   24.7492  -79.6938 H         1 UNK         0.0837 
    104 H104      -75.9057   23.3249  -78.6674 H         1 UNK         0.0837 
    105 H105      -77.2347   24.4624  -78.4694 H         1 UNK         0.0837 
    106 H106      -76.1624   23.8732  -76.2338 H         1 UNK         0.3020 
    107 H107      -74.7029   23.7291  -73.8258 H         1 UNK         0.1245 
    108 H108      -75.9745   26.2095  -72.5844 H         1 UNK         0.0781 
    109 H109      -74.2666   25.8436  -72.5806 H         1 UNK         0.0781 
    110 H110      -75.3653   25.1834  -68.8025 H         1 UNK         0.0836 
    111 H111      -74.2547   26.0686  -69.8187 H         1 UNK         0.0836 
    112 H112      -76.7133   22.8225  -73.8993 H         1 UNK         0.3022 
    113 H113      -78.8323   22.4688  -74.3465 H         1 UNK         0.0747 
    114 H114      -79.3529   23.1089  -71.9840 H         1 UNK         0.0793 
    115 H115      -80.8322   22.8089  -72.8858 H         1 UNK         0.0793 
    116 H116      -80.3263   24.4613  -72.5437 H         1 UNK         0.0793 
    117 H117      -80.7080   24.6620  -74.9420 H         1 UNK         0.3047 
    118 H118      -79.9278   24.7019  -78.4521 H         1 UNK         0.0822 
    119 H119      -82.3620   25.2912  -78.2792 H         1 UNK         0.0807 
    120 H120      -82.4301   24.5688  -76.6750 H         1 UNK         0.0807 
    121 H121      -82.0773   23.5704  -78.0736 H         1 UNK         0.0807 
    122 H122      -80.6032   26.3593  -76.0529 H         1 UNK         0.2946 
    123 H123      -77.6758   27.6526  -75.9719 H         1 UNK         0.1144 
    124 H124      -77.6441   29.3053  -77.7600 H         1 UNK         0.0793 
    125 H125      -78.0613   30.1222  -76.2636 H         1 UNK         0.0793 
    126 H126      -79.3086   29.7681  -77.4606 H         1 UNK         0.0793 
    127 H127      -79.0803   27.6061  -74.3089 H         1 UNK         0.2896 
@<TRIPOS>BOND
     1    1    2 1    
     2    1   67 1    
     3    1   68 1    
     4    1   69 1    
     5    2    3 2    
     6    2    4 am   BACKBONE|DICT|INTERRES
     7    4    5 1    
     8    4   70 1    
     9    5    6 1    
    10    5   65 1    
    11    5   71 1    
    12    6    7 1    
    13    6   72 1    
    14    6   73 1    
    15    7    8 1    
    16    8    9 1    
    17    8   74 1    
    18    8   75 1    
    19    9   10 ar   
    20    9   14 ar   
    21   10   11 ar   
    22   10   76 1    
    23   11   12 ar   
    24   11   48 1    
    25   12   13 ar   
    26   12   77 1    
    27   13   14 ar   
    28   13   15 1    
    29   14   78 1    
    30   15   16 1    
    31   15   79 1    
    32   15   80 1    
    33   16   17 1    
    34   17   18 1    
    35   17   81 1    
    36   17   82 1    
    37   18   19 1    
    38   18   22 1    
    39   18   83 1    
    40   19   20 am   BACKBONE|DICT|INTERRES
    41   19   21 2    
    42   20   84 1    
    43   20   85 1    
    44   22   23 am   BACKBONE|DICT|INTERRES
    45   22   86 1    
    46   23   24 2    
    47   23   25 1    
    48   25   26 1    
    49   25   27 1    
    50   25   87 1    
    51   26   88 1    
    52   26   89 1    
    53   26   90 1    
    54   27   28 am   BACKBONE|DICT|INTERRES
    55   27   91 1    
    56   28   29 2    
    57   28   30 1    
    58   30   31 1    
    59   30   32 1    
    60   30   92 1    
    61   31   93 1    
    62   31   94 1    
    63   31   95 1    
    64   32   33 am   BACKBONE|DICT|INTERRES
    65   32   96 1    
    66   33   34 2    
    67   33   35 1    
    68   35   36 1    
    69   35   37 1    
    70   35   97 1    
    71   36   98 1    
    72   36   99 1    
    73   36  100 1    
    74   37   38 am   BACKBONE|DICT|INTERRES
    75   37  101 1    
    76   38   39 2    
    77   38   40 1    
    78   40   41 1    
    79   40   42 1    
    80   40  102 1    
    81   41  103 1    
    82   41  104 1    
    83   41  105 1    
    84   42   43 am   BACKBONE|DICT|INTERRES
    85   42  106 1    
    86   43   44 2    
    87   43   45 1    
    88   45   46 1    
    89   45   49 1    
    90   45  107 1    
    91   46   47 1    
    92   46  108 1    
    93   46  109 1    
    94   47   48 1    
    95   48  110 1    
    96   48  111 1    
    97   49   50 am   BACKBONE|DICT|INTERRES
    98   49  112 1    
    99   50   51 2    
   100   50   52 1    
   101   52   53 1    
   102   52   54 1    
   103   52  113 1    
   104   53  114 1    
   105   53  115 1    
   106   53  116 1    
   107   54   55 am   BACKBONE|DICT|INTERRES
   108   54  117 1    
   109   55   56 2    
   110   55   57 1    
   111   57   58 1    
   112   57   59 1    
   113   57  118 1    
   114   58  119 1    
   115   58  120 1    
   116   58  121 1    
   117   59   60 am   BACKBONE|DICT|INTERRES
   118   59  122 1    
   119   60   61 2    
   120   60   62 1    
   121   62   63 1    
   122   62   64 1    
   123   62  123 1    
   124   63  124 1    
   125   63  125 1    
   126   63  126 1    
   127   64   65 am   BACKBONE|DICT|INTERRES
   128   64  127 1    
   129   65   66 2    
@<TRIPOS>SUBSTRUCTURE
     1 UNK         1 GROUP             0       ****    0 ROOT    
