@<TRIPOS>MOLECULE
3R135
127   129    1
SMALL
USER_CHARGES


@<TRIPOS>ATOM
      1 CA        -84.4007   30.5221  -72.4373 C.3       0 UNK        -0.1998 
      2 C         -83.3632   29.5455  -72.9707 C.2       0 UNK         0.4909 
      3 O         -82.9852   29.6325  -74.1394 O.2       0 UNK        -0.5240 
      4 N         -82.8949   28.6242  -72.1199 N.am      1 UNK        -0.4739 
      5 CA        -81.9242   27.5784  -72.4630 C.3       1 UNK         0.0864 
      6 C6        -81.3115   26.9175  -71.1969 C.3       11 UNK        -0.0881 
      7 S7        -80.6161   28.1149  -70.0013 S.3       11 UNK        -0.2682 
      8 C8        -78.8693   27.5841  -69.8633 C.3       11 UNK         0.0289 
      9 C9        -77.9546   27.9367  -71.0396 C.ar      11 UNK        -0.0687 
     10 C10       -78.3743   28.7201  -72.1223 C.ar      11 UNK        -0.0823 
     11 C11       -77.5154   28.9911  -73.1897 C.ar      11 UNK        -0.0830 
     12 C12       -76.2000   28.5283  -73.1455 C.ar      11 UNK        -0.1021 
     13 C13       -75.7565   27.7596  -72.0678 C.ar      11 UNK        -0.0753 
     14 C14       -76.6387   27.4599  -71.0250 C.ar      11 UNK        -0.0933 
     15 C15       -74.3278   27.2372  -72.0553 C.3       11 UNK         0.0166 
     16 S16       -73.2916   28.0011  -70.7659 S.3       11 UNK        -0.2615 
     17 C17       -73.4748   29.8003  -71.0589 C.3       11 UNK        -0.0865 
     18 CA        -72.2966   30.4757  -71.8092 C.3       10 UNK         0.0862 
     19 C         -70.9469   30.3752  -71.0361 C.2       10 UNK         0.5551 
     20 N         -69.8934   29.8036  -71.6074 N.am      10 UNK        -0.7319 
     21 O         -70.8525   30.8409  -69.9030 O.2       10 UNK        -0.5018 
     22 N         -72.2488   30.0816  -73.2283 N.am      10 UNK        -0.4509 
     23 C         -71.6960   30.8201  -74.2007 C.2       10 UNK         0.4899 
     24 O         -71.1800   31.9215  -74.0040 O.2       10 UNK        -0.4839 
     25 CA        -71.7103   30.2274  -75.6232 C.3       9 UNK         0.0222 
     26 CB        -70.7983   31.0009  -76.5951 C.3       9 UNK        -0.1966 
     27 N         -71.3087   28.8185  -75.6169 N.am      9 UNK        -0.4218 
     28 C         -72.1524   27.7817  -75.5794 C.2       9 UNK         0.5020 
     29 O         -73.3768   27.8993  -75.5388 O.2       9 UNK        -0.5274 
     30 CA        -71.5079   26.3936  -75.5188 C.3       8 UNK         0.0270 
     31 CB        -71.1142   26.0311  -74.0741 C.3       8 UNK        -0.1976 
     32 N         -72.4224   25.3834  -76.0478 N.am      8 UNK        -0.4313 
     33 C         -72.0302   24.2489  -76.6424 C.2       8 UNK         0.5041 
     34 O         -70.8489   23.9361  -76.8034 O.2       8 UNK        -0.5577 
     35 CA        -73.1225   23.2900  -77.1460 C.3       7 UNK         0.0284 
     36 CB        -73.6331   22.4035  -75.9992 C.3       7 UNK        -0.1958 
     37 N         -74.2498   23.9710  -77.7833 N.am      7 UNK        -0.4454 
     38 C         -74.1885   24.6269  -78.9516 C.2       7 UNK         0.5089 
     39 O         -73.1675   24.7268  -79.6325 O.2       7 UNK        -0.5125 
     40 CA        -75.4878   25.2829  -79.4459 C.3       6 UNK         0.0408 
     41 CB        -76.3297   24.2866  -80.2597 C.3       6 UNK        -0.1791 
     42 N         -76.2744   25.7988  -78.3249 N.am      6 UNK        -0.4762 
     43 C         -76.0851   27.0066  -77.7732 C.2       6 UNK         0.5007 
     44 O         -75.3323   27.8571  -78.2490 O.2       6 UNK        -0.5032 
     45 CA        -76.8673   27.3336  -76.4845 C.3       5 UNK         0.0783 
     46 C46       -78.0739   28.2490  -76.8157 C.3       11 UNK        -0.0857 
     47 S47       -79.1271   28.7021  -75.3953 S.3       11 UNK        -0.2512 
     48 C48       -78.0330   29.7605  -74.3942 C.3       11 UNK         0.0225 
     49 N         -77.2492   26.1348  -75.7285 N.am      5 UNK        -0.4615 
     50 C         -76.3863   25.3471  -75.0659 C.2       4 UNK         0.5053 
     51 O         -75.1727   25.5370  -75.0289 O.2       4 UNK        -0.5105 
     52 CA        -76.9551   24.0914  -74.3785 C.3       4 UNK         0.0263 
     53 CB        -77.4119   24.4293  -72.9504 C.3       4 UNK        -0.1981 
     54 N         -78.0643   23.4755  -75.1082 N.am      4 UNK        -0.4224 
     55 C         -78.0534   23.1174  -76.4011 C.2       3 UNK         0.4895 
     56 O         -77.0428   23.1414  -77.1040 O.2       3 UNK        -0.5091 
     57 CA        -79.4054   22.7392  -77.0389 C.3       3 UNK         0.0250 
     58 CB        -79.4960   21.2180  -77.2365 C.3       3 UNK        -0.1996 
     59 N         -80.5847   23.2033  -76.2917 N.am      3 UNK        -0.4254 
     60 C         -80.8634   24.4776  -75.9740 C.2       2 UNK         0.5004 
     61 O         -80.1530   25.4287  -76.3094 O.2       2 UNK        -0.5226 
     62 CA        -82.0783   24.7324  -75.0665 C.3       2 UNK         0.0269 
     63 CB        -82.5246   23.4809  -74.2697 C.3       2 UNK        -0.1926 
     64 N         -81.7258   25.8284  -74.1634 N.am      2 UNK        -0.4687 
     65 C         -82.5623   26.5023  -73.3678 C.2       1 UNK         0.5165 
     66 O         -83.7734   26.2738  -73.2972 O.2       1 UNK        -0.5079 
     67 H67       -84.6286   30.3415  -71.3869 H         1 UNK         0.0900 
     68 H68       -84.0380   31.5451  -72.5342 H         1 UNK         0.0900 
     69 H69       -85.3263   30.4329  -73.0053 H         1 UNK         0.0900 
     70 H70       -83.2454   28.5946  -71.1734 H         1 UNK         0.2959 
     71 H71       -81.1254   28.0484  -73.0383 H         1 UNK         0.1079 
     72 H72       -80.5323   26.2085  -71.4838 H         1 UNK         0.0837 
     73 H73       -82.0679   26.3328  -70.6694 H         1 UNK         0.0837 
     74 H74       -78.4541   28.0436  -68.9653 H         1 UNK         0.0685 
     75 H75       -78.8429   26.5065  -69.6947 H         1 UNK         0.0685 
     76 H76       -79.3757   29.1191  -72.1586 H         1 UNK         0.1434 
     77 H77       -75.5176   28.7537  -73.9527 H         1 UNK         0.1329 
     78 H78       -76.2935   26.8580  -70.1954 H         1 UNK         0.1335 
     79 H79       -73.8563   27.3930  -73.0239 H         1 UNK         0.0680 
     80 H80       -74.3441   26.1574  -71.9016 H         1 UNK         0.0680 
     81 H81       -74.4069   30.0083  -71.5829 H         1 UNK         0.1032 
     82 H82       -73.5990   30.2725  -70.0826 H         1 UNK         0.1032 
     83 H83       -72.5281   31.5429  -71.8038 H         1 UNK         0.0461 
     84 H84       -69.9613   29.4295  -72.5388 H         1 UNK         0.3453 
     85 H85       -69.0241   29.7500  -71.1005 H         1 UNK         0.3453 
     86 H86       -72.6488   29.1850  -73.4629 H         1 UNK         0.2984 
     87 H87       -72.7335   30.3199  -75.9937 H         1 UNK         0.0554 
     88 H88       -71.1064   32.0442  -76.6764 H         1 UNK         0.0847 
     89 H89       -70.8388   30.5770  -77.5986 H         1 UNK         0.0847 
     90 H90       -69.7576   30.9924  -76.2687 H         1 UNK         0.0847 
     91 H91       -70.3147   28.6365  -75.6107 H         1 UNK         0.3141 
     92 H92       -70.6089   26.4229  -76.1386 H         1 UNK         0.0743 
     93 H93       -71.9903   25.9179  -73.4353 H         1 UNK         0.0784 
     94 H94       -70.5583   25.0940  -74.0408 H         1 UNK         0.0784 
     95 H95       -70.4793   26.7975  -73.6280 H         1 UNK         0.0784 
     96 H96       -73.4140   25.5848  -75.9200 H         1 UNK         0.3213 
     97 H97       -72.6697   22.6386  -77.8969 H         1 UNK         0.0855 
     98 H98       -74.0268   22.9991  -75.1763 H         1 UNK         0.0814 
     99 H99       -72.8257   21.7911  -75.5956 H         1 UNK         0.0814 
    100 H100      -74.4194   21.7265  -76.3342 H         1 UNK         0.0814 
    101 H101      -75.1519   23.8908  -77.3269 H         1 UNK         0.3105 
    102 H102      -75.2179   26.1066  -80.1103 H         1 UNK         0.0547 
    103 H103      -75.7758   23.9346  -81.1309 H         1 UNK         0.0837 
    104 H104      -76.6050   23.4078  -79.6765 H         1 UNK         0.0837 
    105 H105      -77.2472   24.7479  -80.6247 H         1 UNK         0.0837 
    106 H106      -76.8872   25.1403  -77.8593 H         1 UNK         0.3020 
    107 H107      -76.1717   27.9001  -75.8672 H         1 UNK         0.1245 
    108 H108      -78.7226   27.7590  -77.5448 H         1 UNK         0.0781 
    109 H109      -77.7336   29.1716  -77.2902 H         1 UNK         0.0781 
    110 H110      -78.5970   30.6300  -74.0533 H         1 UNK         0.0836 
    111 H111      -77.2124   30.1469  -75.0005 H         1 UNK         0.0836 
    112 H112      -78.2358   25.8979  -75.7470 H         1 UNK         0.3022 
    113 H113      -76.1578   23.3498  -74.3171 H         1 UNK         0.0747 
    114 H114      -77.7861   23.5479  -72.4295 H         1 UNK         0.0793 
    115 H115      -76.5803   24.8199  -72.3631 H         1 UNK         0.0793 
    116 H116      -78.1971   25.1869  -72.9434 H         1 UNK         0.0793 
    117 H117      -78.9411   23.4057  -74.6149 H         1 UNK         0.3047 
    118 H118      -79.4345   23.2156  -78.0210 H         1 UNK         0.0822 
    119 H119      -80.3989   20.9404  -77.7808 H         1 UNK         0.0807 
    120 H120      -79.4988   20.6861  -76.2843 H         1 UNK         0.0807 
    121 H121      -78.6470   20.8480  -77.8137 H         1 UNK         0.0807 
    122 H122      -81.2144   22.4852  -75.9630 H         1 UNK         0.2946 
    123 H123      -82.8982   25.0613  -75.7087 H         1 UNK         0.1144 
    124 H124      -83.3748   23.6952  -73.6227 H         1 UNK         0.0793 
    125 H125      -81.7233   23.0959  -73.6376 H         1 UNK         0.0793 
    126 H126      -82.8467   22.6770  -74.9325 H         1 UNK         0.0793 
    127 H127      -80.7619   26.1287  -74.2399 H         1 UNK         0.2896 
@<TRIPOS>BOND
     1    1    2 1    
     2    1   67 1    
     3    1   68 1    
     4    1   69 1    
     5    2    3 2    
     6    2    4 am   BACKBONE|DICT|INTERRES
     7    4    5 1    
     8    4   70 1    
     9    5    6 1    
    10    5   65 1    
    11    5   71 1    
    12    6    7 1    
    13    6   72 1    
    14    6   73 1    
    15    7    8 1    
    16    8    9 1    
    17    8   74 1    
    18    8   75 1    
    19    9   10 ar   
    20    9   14 ar   
    21   10   11 ar   
    22   10   76 1    
    23   11   12 ar   
    24   11   48 1    
    25   12   13 ar   
    26   12   77 1    
    27   13   14 ar   
    28   13   15 1    
    29   14   78 1    
    30   15   16 1    
    31   15   79 1    
    32   15   80 1    
    33   16   17 1    
    34   17   18 1    
    35   17   81 1    
    36   17   82 1    
    37   18   19 1    
    38   18   22 1    
    39   18   83 1    
    40   19   20 am   BACKBONE|DICT|INTERRES
    41   19   21 2    
    42   20   84 1    
    43   20   85 1    
    44   22   23 am   BACKBONE|DICT|INTERRES
    45   22   86 1    
    46   23   24 2    
    47   23   25 1    
    48   25   26 1    
    49   25   27 1    
    50   25   87 1    
    51   26   88 1    
    52   26   89 1    
    53   26   90 1    
    54   27   28 am   BACKBONE|DICT|INTERRES
    55   27   91 1    
    56   28   29 2    
    57   28   30 1    
    58   30   31 1    
    59   30   32 1    
    60   30   92 1    
    61   31   93 1    
    62   31   94 1    
    63   31   95 1    
    64   32   33 am   BACKBONE|DICT|INTERRES
    65   32   96 1    
    66   33   34 2    
    67   33   35 1    
    68   35   36 1    
    69   35   37 1    
    70   35   97 1    
    71   36   98 1    
    72   36   99 1    
    73   36  100 1    
    74   37   38 am   BACKBONE|DICT|INTERRES
    75   37  101 1    
    76   38   39 2    
    77   38   40 1    
    78   40   41 1    
    79   40   42 1    
    80   40  102 1    
    81   41  103 1    
    82   41  104 1    
    83   41  105 1    
    84   42   43 am   BACKBONE|DICT|INTERRES
    85   42  106 1    
    86   43   44 2    
    87   43   45 1    
    88   45   46 1    
    89   45   49 1    
    90   45  107 1    
    91   46   47 1    
    92   46  108 1    
    93   46  109 1    
    94   47   48 1    
    95   48  110 1    
    96   48  111 1    
    97   49   50 am   BACKBONE|DICT|INTERRES
    98   49  112 1    
    99   50   51 2    
   100   50   52 1    
   101   52   53 1    
   102   52   54 1    
   103   52  113 1    
   104   53  114 1    
   105   53  115 1    
   106   53  116 1    
   107   54   55 am   BACKBONE|DICT|INTERRES
   108   54  117 1    
   109   55   56 2    
   110   55   57 1    
   111   57   58 1    
   112   57   59 1    
   113   57  118 1    
   114   58  119 1    
   115   58  120 1    
   116   58  121 1    
   117   59   60 am   BACKBONE|DICT|INTERRES
   118   59  122 1    
   119   60   61 2    
   120   60   62 1    
   121   62   63 1    
   122   62   64 1    
   123   62  123 1    
   124   63  124 1    
   125   63  125 1    
   126   63  126 1    
   127   64   65 am   BACKBONE|DICT|INTERRES
   128   64  127 1    
   129   65   66 2    
@<TRIPOS>SUBSTRUCTURE
     1 UNK         1 GROUP             0       ****    0 ROOT    
