@<TRIPOS>MOLECULE
3R135
127   129    1
SMALL
USER_CHARGES


@<TRIPOS>ATOM
      1 CA        -80.9435   27.4153  -77.0073 C.3       0 UNK        -0.1998 
      2 C         -81.2876   26.9746  -75.5925 C.2       0 UNK         0.4909 
      3 O         -82.3754   26.4468  -75.3614 O.2       0 UNK        -0.5240 
      4 N         -80.3553   27.1589  -74.6496 N.am      1 UNK        -0.4739 
      5 CA        -80.4191   26.8016  -73.2237 C.3       1 UNK         0.0864 
      6 C6        -81.6283   27.4147  -72.4698 C.3       11 UNK        -0.0881 
      7 S7        -81.3155   27.5867  -70.6770 S.3       11 UNK        -0.2682 
      8 C8        -80.9623   29.3651  -70.5020 C.3       11 UNK         0.0289 
      9 C9        -79.5480   29.7271  -70.9389 C.ar      11 UNK        -0.0687 
     10 C10       -79.2847   30.0476  -72.2719 C.ar      11 UNK        -0.0823 
     11 C11       -78.0037   30.4277  -72.6811 C.ar      11 UNK        -0.0830 
     12 C12       -76.9824   30.5110  -71.7248 C.ar      11 UNK        -0.1021 
     13 C13       -77.2238   30.1858  -70.3835 C.ar      11 UNK        -0.0753 
     14 C14       -78.5106   29.7884  -70.0033 C.ar      11 UNK        -0.0933 
     15 C15       -76.1417   30.3180  -69.3087 C.3       11 UNK         0.0166 
     16 S16       -74.4249   30.0762  -69.8870 S.3       11 UNK        -0.2615 
     17 C17       -74.3959   28.2739  -70.1601 C.3       11 UNK        -0.0865 
     18 CA        -73.1559   27.8004  -70.9687 C.3       10 UNK         0.0862 
     19 C         -73.1139   26.2439  -71.0626 C.2       10 UNK         0.5551 
     20 N         -73.1175   25.6353  -72.2439 N.am      10 UNK        -0.7319 
     21 O         -73.0718   25.5737  -70.0339 O.2       10 UNK        -0.5018 
     22 N         -73.0325   28.4993  -72.2601 N.am      10 UNK        -0.4509 
     23 C         -71.9113   28.5570  -72.9880 C.2       10 UNK         0.4899 
     24 O         -70.8211   28.1113  -72.6248 O.2       10 UNK        -0.4839 
     25 CA        -72.0365   29.2046  -74.3773 C.3       9 UNK         0.0222 
     26 CB        -71.2234   30.5066  -74.4535 C.3       9 UNK        -0.1966 
     27 N         -71.6092   28.2915  -75.4444 N.am      9 UNK        -0.4218 
     28 C         -72.1778   27.1066  -75.7005 C.2       9 UNK         0.5020 
     29 O         -73.1379   26.6593  -75.0651 O.2       9 UNK        -0.5274 
     30 CA        -71.6079   26.2842  -76.8590 C.3       8 UNK         0.0270 
     31 CB        -70.4577   25.3848  -76.3690 C.3       8 UNK        -0.1976 
     32 N         -72.6987   25.4758  -77.3995 N.am      8 UNK        -0.4313 
     33 C         -72.7193   24.8467  -78.5796 C.2       8 UNK         0.5041 
     34 O         -71.7833   24.8521  -79.3802 O.2       8 UNK        -0.5577 
     35 CA        -74.0171   24.0999  -78.9291 C.3       7 UNK         0.0284 
     36 CB        -74.2796   22.9385  -77.9539 C.3       7 UNK        -0.1958 
     37 N         -75.1640   25.0095  -78.9368 N.am      7 UNK        -0.4454 
     38 C         -75.4523   25.8560  -79.9358 C.2       7 UNK         0.5089 
     39 O         -74.8361   25.8996  -81.0012 O.2       7 UNK        -0.5125 
     40 CA        -76.6039   26.8466  -79.6911 C.3       6 UNK         0.0408 
     41 CB        -77.9743   26.1513  -79.7512 C.3       6 UNK        -0.1791 
     42 N         -76.4470   27.5403  -78.4120 N.am      6 UNK        -0.4762 
     43 C         -75.5129   28.4692  -78.1597 C.2       6 UNK         0.5007 
     44 O         -74.7523   28.9180  -79.0176 O.2       6 UNK        -0.5032 
     45 CA        -75.3639   28.9584  -76.7061 C.3       5 UNK         0.0783 
     46 C46       -76.2230   30.2206  -76.4382 C.3       11 UNK        -0.0857 
     47 S47       -76.0572   30.8221  -74.7219 S.3       11 UNK        -0.2512 
     48 C48       -77.7956   30.7579  -74.1590 C.3       11 UNK         0.0225 
     49 N         -75.5159   27.8662  -75.7339 N.am      5 UNK        -0.4615 
     50 C         -76.6292   27.2531  -75.3304 C.2       4 UNK         0.5053 
     51 O         -77.7660   27.5807  -75.6743 O.2       4 UNK        -0.5105 
     52 CA        -76.4172   26.0411  -74.4087 C.3       4 UNK         0.0263 
     53 CB        -76.4058   26.4852  -72.9411 C.3       4 UNK        -0.1981 
     54 N         -77.4175   24.9916  -74.6119 N.am      4 UNK        -0.4224 
     55 C         -77.6272   24.3621  -75.7779 C.2       3 UNK         0.4895 
     56 O         -76.9499   24.5678  -76.7869 O.2       3 UNK        -0.5091 
     57 CA        -78.7624   23.3251  -75.8126 C.3       3 UNK         0.0250 
     58 CB        -78.6787   22.4059  -77.0460 C.3       3 UNK        -0.1996 
     59 N         -78.7178   22.5030  -74.6004 N.am      3 UNK        -0.4254 
     60 C         -79.6660   22.2945  -73.6744 C.2       2 UNK         0.5004 
     61 O         -79.4484   21.5482  -72.7199 O.2       2 UNK        -0.5226 
     62 CA        -81.0424   23.0015  -73.7783 C.3       2 UNK         0.0269 
     63 CB        -82.0247   22.5333  -72.6841 C.3       2 UNK        -0.1926 
     64 N         -80.9907   24.4712  -73.7668 N.am      2 UNK        -0.4687 
     65 C         -80.2731   25.2844  -72.9781 C.2       1 UNK         0.5165 
     66 O         -79.4677   24.8914  -72.1348 O.2       1 UNK        -0.5079 
     67 H67       -81.7562   28.0112  -77.4234 H         1 UNK         0.0900 
     68 H68       -80.7955   26.5440  -77.6458 H         1 UNK         0.0900 
     69 H69       -80.0353   28.0184  -77.0366 H         1 UNK         0.0900 
     70 H70       -79.4446   27.5007  -74.9562 H         1 UNK         0.2959 
     71 H71       -79.5248   27.2592  -72.8037 H         1 UNK         0.1079 
     72 H72       -82.5267   26.8115  -72.6144 H         1 UNK         0.0837 
     73 H73       -81.8707   28.3956  -72.8799 H         1 UNK         0.0837 
     74 H74       -81.6952   29.9468  -71.0632 H         1 UNK         0.0685 
     75 H75       -81.1032   29.6413  -69.4559 H         1 UNK         0.0685 
     76 H76       -80.0860   30.0079  -72.9969 H         1 UNK         0.1434 
     77 H77       -75.9979   30.8439  -72.0170 H         1 UNK         0.1329 
     78 H78       -78.7145   29.5523  -68.9676 H         1 UNK         0.1335 
     79 H79       -76.2166   31.3169  -68.8773 H         1 UNK         0.0680 
     80 H80       -76.3321   29.6171  -68.4942 H         1 UNK         0.0680 
     81 H81       -74.4154   27.7930  -69.1800 H         1 UNK         0.1032 
     82 H82       -75.3202   27.9776  -70.6558 H         1 UNK         0.1032 
     83 H83       -72.2766   28.0741  -70.3821 H         1 UNK         0.0461 
     84 H84       -73.0835   24.6295  -72.2723 H         1 UNK         0.3453 
     85 H85       -73.1268   26.1608  -73.1098 H         1 UNK         0.3453 
     86 H86       -73.8794   28.9084  -72.6249 H         1 UNK         0.2984 
     87 H87       -73.0844   29.4552  -74.5527 H         1 UNK         0.0554 
     88 H88       -71.5368   31.2065  -73.6775 H         1 UNK         0.0847 
     89 H89       -71.3606   31.0068  -75.4123 H         1 UNK         0.0847 
     90 H90       -70.1563   30.3260  -74.3165 H         1 UNK         0.0847 
     91 H91       -70.8036   28.5729  -75.9848 H         1 UNK         0.3141 
     92 H92       -71.2487   26.9621  -77.6361 H         1 UNK         0.0743 
     93 H93       -70.7953   24.6832  -75.6049 H         1 UNK         0.0784 
     94 H94       -70.0255   24.8066  -77.1857 H         1 UNK         0.0784 
     95 H95       -69.6526   25.9788  -75.9343 H         1 UNK         0.0784 
     96 H96       -73.5090   25.4321  -76.7945 H         1 UNK         0.3213 
     97 H97       -73.9002   23.6748  -79.9286 H         1 UNK         0.0855 
     98 H98       -74.4426   23.2856  -76.9330 H         1 UNK         0.0814 
     99 H99       -73.4356   22.2477  -77.9341 H         1 UNK         0.0814 
    100 H100      -75.1592   22.3673  -78.2515 H         1 UNK         0.0814 
    101 H101      -75.7714   24.9923  -78.1185 H         1 UNK         0.3105 
    102 H102      -76.5772   27.5935  -80.4876 H         1 UNK         0.0547 
    103 H103      -78.7867   26.8706  -79.6479 H         1 UNK         0.0837 
    104 H104      -78.0920   25.4017  -78.9696 H         1 UNK         0.0837 
    105 H105      -78.1103   25.6456  -80.7079 H         1 UNK         0.0837 
    106 H106      -77.0328   27.2376  -77.6418 H         1 UNK         0.3020 
    107 H107      -74.3221   29.2691  -76.6153 H         1 UNK         0.1245 
    108 H108      -77.2696   30.0311  -76.6802 H         1 UNK         0.0781 
    109 H109      -75.9119   31.0304  -77.1008 H         1 UNK         0.0781 
    110 H110      -78.3353   30.0118  -74.7425 H         1 UNK         0.0836 
    111 H111      -78.2659   31.7173  -74.3778 H         1 UNK         0.0836 
    112 H112      -74.6351   27.4733  -75.4031 H         1 UNK         0.3022 
    113 H113      -75.4491   25.5929  -74.6372 H         1 UNK         0.0747 
    114 H114      -76.2066   25.6497  -72.2698 H         1 UNK         0.0793 
    115 H115      -75.6227   27.2251  -72.7844 H         1 UNK         0.0793 
    116 H116      -77.3433   26.9471  -72.6389 H         1 UNK         0.0793 
    117 H117      -77.9925   24.7506  -73.8151 H         1 UNK         0.3047 
    118 H118      -79.6904   23.8882  -75.8928 H         1 UNK         0.0822 
    119 H119      -79.4925   21.6807  -77.0566 H         1 UNK         0.0807 
    120 H120      -77.7378   21.8546  -77.0753 H         1 UNK         0.0807 
    121 H121      -78.7482   22.9811  -77.9704 H         1 UNK         0.0807 
    122 H122      -77.8311   22.0428  -74.4487 H         1 UNK         0.2946 
    123 H123      -81.4641   22.7049  -74.7403 H         1 UNK         0.1144 
    124 H124      -82.1456   21.4492  -72.6999 H         1 UNK         0.0793 
    125 H125      -83.0139   22.9690  -72.8262 H         1 UNK         0.0793 
    126 H126      -81.6779   22.8105  -71.6875 H         1 UNK         0.0793 
    127 H127      -81.6022   24.9381  -74.4324 H         1 UNK         0.2896 
@<TRIPOS>BOND
     1    1    2 1    
     2    1   67 1    
     3    1   68 1    
     4    1   69 1    
     5    2    3 2    
     6    2    4 am   BACKBONE|DICT|INTERRES
     7    4    5 1    
     8    4   70 1    
     9    5    6 1    
    10    5   65 1    
    11    5   71 1    
    12    6    7 1    
    13    6   72 1    
    14    6   73 1    
    15    7    8 1    
    16    8    9 1    
    17    8   74 1    
    18    8   75 1    
    19    9   10 ar   
    20    9   14 ar   
    21   10   11 ar   
    22   10   76 1    
    23   11   12 ar   
    24   11   48 1    
    25   12   13 ar   
    26   12   77 1    
    27   13   14 ar   
    28   13   15 1    
    29   14   78 1    
    30   15   16 1    
    31   15   79 1    
    32   15   80 1    
    33   16   17 1    
    34   17   18 1    
    35   17   81 1    
    36   17   82 1    
    37   18   19 1    
    38   18   22 1    
    39   18   83 1    
    40   19   20 am   BACKBONE|DICT|INTERRES
    41   19   21 2    
    42   20   84 1    
    43   20   85 1    
    44   22   23 am   BACKBONE|DICT|INTERRES
    45   22   86 1    
    46   23   24 2    
    47   23   25 1    
    48   25   26 1    
    49   25   27 1    
    50   25   87 1    
    51   26   88 1    
    52   26   89 1    
    53   26   90 1    
    54   27   28 am   BACKBONE|DICT|INTERRES
    55   27   91 1    
    56   28   29 2    
    57   28   30 1    
    58   30   31 1    
    59   30   32 1    
    60   30   92 1    
    61   31   93 1    
    62   31   94 1    
    63   31   95 1    
    64   32   33 am   BACKBONE|DICT|INTERRES
    65   32   96 1    
    66   33   34 2    
    67   33   35 1    
    68   35   36 1    
    69   35   37 1    
    70   35   97 1    
    71   36   98 1    
    72   36   99 1    
    73   36  100 1    
    74   37   38 am   BACKBONE|DICT|INTERRES
    75   37  101 1    
    76   38   39 2    
    77   38   40 1    
    78   40   41 1    
    79   40   42 1    
    80   40  102 1    
    81   41  103 1    
    82   41  104 1    
    83   41  105 1    
    84   42   43 am   BACKBONE|DICT|INTERRES
    85   42  106 1    
    86   43   44 2    
    87   43   45 1    
    88   45   46 1    
    89   45   49 1    
    90   45  107 1    
    91   46   47 1    
    92   46  108 1    
    93   46  109 1    
    94   47   48 1    
    95   48  110 1    
    96   48  111 1    
    97   49   50 am   BACKBONE|DICT|INTERRES
    98   49  112 1    
    99   50   51 2    
   100   50   52 1    
   101   52   53 1    
   102   52   54 1    
   103   52  113 1    
   104   53  114 1    
   105   53  115 1    
   106   53  116 1    
   107   54   55 am   BACKBONE|DICT|INTERRES
   108   54  117 1    
   109   55   56 2    
   110   55   57 1    
   111   57   58 1    
   112   57   59 1    
   113   57  118 1    
   114   58  119 1    
   115   58  120 1    
   116   58  121 1    
   117   59   60 am   BACKBONE|DICT|INTERRES
   118   59  122 1    
   119   60   61 2    
   120   60   62 1    
   121   62   63 1    
   122   62   64 1    
   123   62  123 1    
   124   63  124 1    
   125   63  125 1    
   126   63  126 1    
   127   64   65 am   BACKBONE|DICT|INTERRES
   128   64  127 1    
   129   65   66 2    
@<TRIPOS>SUBSTRUCTURE
     1 UNK         1 GROUP             0       ****    0 ROOT    
