@<TRIPOS>MOLECULE
3R135
127   129    1
SMALL
USER_CHARGES


@<TRIPOS>ATOM
      1 CA        -83.4780   24.8235  -72.6099 C.3       0 UNK        -0.1998 
      2 C         -82.7611   25.6120  -73.6944 C.2       0 UNK         0.4909 
      3 O         -82.5914   25.1179  -74.8110 O.2       0 UNK        -0.5240 
      4 N         -82.3443   26.8420  -73.3653 N.am      1 UNK        -0.4739 
      5 CA        -81.6906   27.7874  -74.2781 C.3       1 UNK         0.0864 
      6 C6        -81.6367   29.2249  -73.6659 C.3       11 UNK        -0.0881 
      7 S7        -80.0259   29.8427  -73.0607 S.3       11 UNK        -0.2682 
      8 C8        -79.9301   29.0472  -71.4305 C.3       11 UNK         0.0289 
      9 C9        -78.4789   28.8963  -71.0084 C.ar      11 UNK        -0.0687 
     10 C10       -77.8075   27.6904  -71.2311 C.ar      11 UNK        -0.0823 
     11 C11       -76.4600   27.5564  -70.8842 C.ar      11 UNK        -0.0830 
     12 C12       -75.7871   28.6360  -70.3051 C.ar      11 UNK        -0.1021 
     13 C13       -76.4483   29.8466  -70.0799 C.ar      11 UNK        -0.0753 
     14 C14       -77.7976   29.9686  -70.4248 C.ar      11 UNK        -0.0933 
     15 C15       -75.7023   31.0278  -69.4779 C.3       11 UNK         0.0166 
     16 S16       -75.2686   32.2609  -70.7453 S.3       11 UNK        -0.2615 
     17 C17       -74.0767   31.3338  -71.7745 C.3       11 UNK        -0.0865 
     18 CA        -72.9535   32.2434  -72.3577 C.3       10 UNK         0.0862 
     19 C         -71.7626   32.5050  -71.3821 C.2       10 UNK         0.5551 
     20 N         -72.0217   32.6325  -70.0882 N.am      10 UNK        -0.7319 
     21 O         -70.6104   32.6452  -71.7896 O.2       10 UNK        -0.5018 
     22 N         -72.5304   31.8076  -73.6983 N.am      10 UNK        -0.4509 
     23 C         -71.9152   30.6566  -73.9979 C.2       10 UNK         0.4899 
     24 O         -71.6663   29.7656  -73.1821 O.2       10 UNK        -0.4839 
     25 CA        -71.4619   30.5115  -75.4615 C.3       9 UNK         0.0222 
     26 CB        -70.1081   31.2109  -75.6726 C.3       9 UNK        -0.1966 
     27 N         -71.3409   29.1125  -75.8759 N.am      9 UNK        -0.4218 
     28 C         -72.3709   28.2829  -76.0832 C.2       9 UNK         0.5020 
     29 O         -73.5555   28.6108  -75.9681 O.2       9 UNK        -0.5274 
     30 CA        -71.9995   26.8416  -76.4785 C.3       8 UNK         0.0270 
     31 CB        -71.6519   26.0109  -75.2335 C.3       8 UNK        -0.1976 
     32 N         -73.0836   26.1875  -77.2167 N.am      8 UNK        -0.4313 
     33 C         -73.4107   26.4835  -78.4838 C.2       8 UNK         0.5041 
     34 O         -72.7511   27.2555  -79.1837 O.2       8 UNK        -0.5577 
     35 CA        -74.6899   25.8508  -79.0723 C.3       7 UNK         0.0284 
     36 CB        -74.5719   25.5669  -80.5853 C.3       7 UNK        -0.1958 
     37 N         -75.1776   24.6702  -78.3519 N.am      7 UNK        -0.4454 
     38 C         -74.5814   23.4768  -78.2198 C.2       7 UNK         0.5089 
     39 O         -73.4975   23.1864  -78.7286 O.2       7 UNK        -0.5125 
     40 CA        -75.3303   22.4473  -77.3470 C.3       6 UNK         0.0408 
     41 CB        -74.4457   21.2518  -76.9361 C.3       6 UNK        -0.1791 
     42 N         -75.9673   23.0477  -76.1665 N.am      6 UNK        -0.4762 
     43 C         -75.3662   23.7498  -75.1906 C.2       6 UNK         0.5007 
     44 O         -74.1560   23.9694  -75.1765 O.2       6 UNK        -0.5032 
     45 CA        -76.2441   24.3269  -74.0539 C.3       5 UNK         0.0783 
     46 C46       -76.0787   25.8646  -73.9048 C.3       11 UNK        -0.0857 
     47 S47       -74.7857   26.2918  -72.6918 S.3       11 UNK        -0.2512 
     48 C48       -75.7229   26.2500  -71.1313 C.3       11 UNK         0.0225 
     49 N         -77.6572   23.9540  -74.1681 N.am      5 UNK        -0.4615 
     50 C         -78.1643   22.7644  -73.8199 C.2       4 UNK         0.5053 
     51 O         -77.5046   21.8624  -73.3041 O.2       4 UNK        -0.5105 
     52 CA        -79.6526   22.5307  -74.1264 C.3       4 UNK         0.0263 
     53 CB        -80.5112   22.9310  -72.9195 C.3       4 UNK        -0.1981 
     54 N         -80.1070   23.2435  -75.3270 N.am      4 UNK        -0.4224 
     55 C         -79.6939   22.9469  -76.5695 C.2       3 UNK         0.4895 
     56 O         -78.9321   22.0164  -76.8334 O.2       3 UNK        -0.5091 
     57 CA        -80.1534   23.8801  -77.7002 C.3       3 UNK         0.0250 
     58 CB        -81.6254   23.6285  -78.0642 C.3       3 UNK        -0.1996 
     59 N         -79.9547   25.2913  -77.3660 N.am      3 UNK        -0.4254 
     60 C         -78.7588   25.8697  -77.1758 C.2       2 UNK         0.5004 
     61 O         -77.6862   25.2870  -77.3212 O.2       2 UNK        -0.5226 
     62 CA        -78.7450   27.3380  -76.7205 C.3       2 UNK         0.0269 
     63 CB        -78.5148   28.2702  -77.9200 C.3       2 UNK        -0.1926 
     64 N         -79.9634   27.7415  -76.0136 N.am      2 UNK        -0.4687 
     65 C         -80.3462   27.2495  -74.8271 C.2       1 UNK         0.5165 
     66 O         -79.6927   26.4136  -74.1932 O.2       1 UNK        -0.5079 
     67 H67       -84.3505   25.3702  -72.2526 H         1 UNK         0.0900 
     68 H68       -82.8144   24.6400  -71.7653 H         1 UNK         0.0900 
     69 H69       -83.8176   23.8613  -72.9927 H         1 UNK         0.0900 
     70 H70       -82.4861   27.1693  -72.4211 H         1 UNK         0.2959 
     71 H71       -82.3599   27.8402  -75.1404 H         1 UNK         0.1079 
     72 H72       -81.9459   29.9323  -74.4373 H         1 UNK         0.0837 
     73 H73       -82.3796   29.3475  -72.8757 H         1 UNK         0.0837 
     74 H74       -80.4822   29.6398  -70.6996 H         1 UNK         0.0685 
     75 H75       -80.4094   28.0678  -71.4666 H         1 UNK         0.0685 
     76 H76       -78.3325   26.8632  -71.6902 H         1 UNK         0.1434 
     77 H77       -74.7425   28.5354  -70.0435 H         1 UNK         0.1329 
     78 H78       -78.3100   30.9075  -70.2642 H         1 UNK         0.1335 
     79 H79       -74.7982   30.6974  -68.9638 H         1 UNK         0.0680 
     80 H80       -76.3274   31.5040  -68.7210 H         1 UNK         0.0680 
     81 H81       -74.6534   30.8764  -72.5804 H         1 UNK         0.1032 
     82 H82       -73.6464   30.4998  -71.2172 H         1 UNK         0.1032 
     83 H83       -73.3815   33.2301  -72.5383 H         1 UNK         0.0461 
     84 H84       -72.9706   32.5625  -69.7525 H         1 UNK         0.3453 
     85 H85       -71.2674   32.8214  -69.4468 H         1 UNK         0.3453 
     86 H86       -72.6511   32.4922  -74.4310 H         1 UNK         0.2984 
     87 H87       -72.2043   30.9906  -76.1038 H         1 UNK         0.0554 
     88 H88       -69.7894   31.1576  -76.7139 H         1 UNK         0.0847 
     89 H89       -69.3245   30.7671  -75.0568 H         1 UNK         0.0847 
     90 H90       -70.1658   32.2678  -75.4084 H         1 UNK         0.0847 
     91 H91       -70.4030   28.7460  -75.9501 H         1 UNK         0.3141 
     92 H92       -71.1199   26.8740  -77.1253 H         1 UNK         0.0743 
     93 H93       -72.4806   25.9840  -74.5263 H         1 UNK         0.0784 
     94 H94       -71.4034   24.9824  -75.4966 H         1 UNK         0.0784 
     95 H95       -70.7928   26.4292  -74.7078 H         1 UNK         0.0784 
     96 H96       -73.6601   25.5387  -76.6948 H         1 UNK         0.3213 
     97 H97       -75.4676   26.6052  -78.9458 H         1 UNK         0.0855 
     98 H98       -74.3741   26.4836  -81.1422 H         1 UNK         0.0814 
     99 H99       -75.4938   25.1426  -80.9828 H         1 UNK         0.0814 
    100 H100      -73.7595   24.8739  -80.8054 H         1 UNK         0.0814 
    101 H101      -76.0799   24.7969  -77.8892 H         1 UNK         0.3105 
    102 H102      -76.1426   22.0607  -77.9641 H         1 UNK         0.0547 
    103 H103      -74.0717   20.7223  -77.8131 H         1 UNK         0.0837 
    104 H104      -73.5795   21.5700  -76.3552 H         1 UNK         0.0837 
    105 H105      -75.0049   20.5320  -76.3386 H         1 UNK         0.0837 
    106 H106      -76.9744   22.9480  -76.1256 H         1 UNK         0.3020 
    107 H107      -75.8727   23.8525  -73.1424 H         1 UNK         0.1245 
    108 H108      -77.0091   26.3322  -73.5834 H         1 UNK         0.0781 
    109 H109      -75.8379   26.3411  -74.8577 H         1 UNK         0.0781 
    110 H110      -75.0276   26.0642  -70.3113 H         1 UNK         0.0836 
    111 H111      -76.4170   25.4079  -71.1339 H         1 UNK         0.0836 
    112 H112      -78.2842   24.6557  -74.5420 H         1 UNK         0.3022 
    113 H113      -79.7886   21.4609  -74.2994 H         1 UNK         0.0747 
    114 H114      -81.5605   22.6923  -73.0893 H         1 UNK         0.0793 
    115 H115      -80.1999   22.3933  -72.0228 H         1 UNK         0.0793 
    116 H116      -80.4291   23.9972  -72.7047 H         1 UNK         0.0793 
    117 H117      -80.7454   24.0206  -75.1911 H         1 UNK         0.3047 
    118 H118      -79.5443   23.6582  -78.5794 H         1 UNK         0.0822 
    119 H119      -81.9288   24.2275  -78.9230 H         1 UNK         0.0807 
    120 H120      -82.2965   23.8645  -77.2375 H         1 UNK         0.0807 
    121 H121      -81.7880   22.5823  -78.3271 H         1 UNK         0.0807 
    122 H122      -80.7843   25.8451  -77.2098 H         1 UNK         0.2946 
    123 H123      -77.9054   27.4528  -76.0310 H         1 UNK         0.1144 
    124 H124      -77.5976   28.0069  -78.4487 H         1 UNK         0.0793 
    125 H125      -78.4150   29.3083  -77.6021 H         1 UNK         0.0793 
    126 H126      -79.3329   28.2146  -78.6392 H         1 UNK         0.0793 
    127 H127      -80.5370   28.4404  -76.4643 H         1 UNK         0.2896 
@<TRIPOS>BOND
     1    1    2 1    
     2    1   67 1    
     3    1   68 1    
     4    1   69 1    
     5    2    3 2    
     6    2    4 am   BACKBONE|DICT|INTERRES
     7    4    5 1    
     8    4   70 1    
     9    5    6 1    
    10    5   65 1    
    11    5   71 1    
    12    6    7 1    
    13    6   72 1    
    14    6   73 1    
    15    7    8 1    
    16    8    9 1    
    17    8   74 1    
    18    8   75 1    
    19    9   10 ar   
    20    9   14 ar   
    21   10   11 ar   
    22   10   76 1    
    23   11   12 ar   
    24   11   48 1    
    25   12   13 ar   
    26   12   77 1    
    27   13   14 ar   
    28   13   15 1    
    29   14   78 1    
    30   15   16 1    
    31   15   79 1    
    32   15   80 1    
    33   16   17 1    
    34   17   18 1    
    35   17   81 1    
    36   17   82 1    
    37   18   19 1    
    38   18   22 1    
    39   18   83 1    
    40   19   20 am   BACKBONE|DICT|INTERRES
    41   19   21 2    
    42   20   84 1    
    43   20   85 1    
    44   22   23 am   BACKBONE|DICT|INTERRES
    45   22   86 1    
    46   23   24 2    
    47   23   25 1    
    48   25   26 1    
    49   25   27 1    
    50   25   87 1    
    51   26   88 1    
    52   26   89 1    
    53   26   90 1    
    54   27   28 am   BACKBONE|DICT|INTERRES
    55   27   91 1    
    56   28   29 2    
    57   28   30 1    
    58   30   31 1    
    59   30   32 1    
    60   30   92 1    
    61   31   93 1    
    62   31   94 1    
    63   31   95 1    
    64   32   33 am   BACKBONE|DICT|INTERRES
    65   32   96 1    
    66   33   34 2    
    67   33   35 1    
    68   35   36 1    
    69   35   37 1    
    70   35   97 1    
    71   36   98 1    
    72   36   99 1    
    73   36  100 1    
    74   37   38 am   BACKBONE|DICT|INTERRES
    75   37  101 1    
    76   38   39 2    
    77   38   40 1    
    78   40   41 1    
    79   40   42 1    
    80   40  102 1    
    81   41  103 1    
    82   41  104 1    
    83   41  105 1    
    84   42   43 am   BACKBONE|DICT|INTERRES
    85   42  106 1    
    86   43   44 2    
    87   43   45 1    
    88   45   46 1    
    89   45   49 1    
    90   45  107 1    
    91   46   47 1    
    92   46  108 1    
    93   46  109 1    
    94   47   48 1    
    95   48  110 1    
    96   48  111 1    
    97   49   50 am   BACKBONE|DICT|INTERRES
    98   49  112 1    
    99   50   51 2    
   100   50   52 1    
   101   52   53 1    
   102   52   54 1    
   103   52  113 1    
   104   53  114 1    
   105   53  115 1    
   106   53  116 1    
   107   54   55 am   BACKBONE|DICT|INTERRES
   108   54  117 1    
   109   55   56 2    
   110   55   57 1    
   111   57   58 1    
   112   57   59 1    
   113   57  118 1    
   114   58  119 1    
   115   58  120 1    
   116   58  121 1    
   117   59   60 am   BACKBONE|DICT|INTERRES
   118   59  122 1    
   119   60   61 2    
   120   60   62 1    
   121   62   63 1    
   122   62   64 1    
   123   62  123 1    
   124   63  124 1    
   125   63  125 1    
   126   63  126 1    
   127   64   65 am   BACKBONE|DICT|INTERRES
   128   64  127 1    
   129   65   66 2    
@<TRIPOS>SUBSTRUCTURE
     1 UNK         1 GROUP             0       ****    0 ROOT    
