@<TRIPOS>MOLECULE
3R135
127   129    1
SMALL
USER_CHARGES


@<TRIPOS>ATOM
      1 CA        -78.6396   29.8284  -75.7653 C.3       0 UNK        -0.1998 
      2 C         -79.8253   29.3901  -74.9199 C.2       0 UNK         0.4909 
      3 O         -80.9705   29.6245  -75.3062 O.2       0 UNK        -0.5240 
      4 N         -79.5479   28.7547  -73.7733 N.am      1 UNK        -0.4739 
      5 CA        -80.5211   28.2563  -72.7881 C.3       1 UNK         0.0864 
      6 C6        -81.2954   29.3719  -72.0314 C.3       11 UNK        -0.0881 
      7 S7        -80.2352   30.7090  -71.3728 S.3       11 UNK        -0.2682 
      8 C8        -79.5356   29.9715  -69.8586 C.3       11 UNK         0.0289 
      9 C9        -78.3876   29.0173  -70.1641 C.ar      11 UNK        -0.0687 
     10 C10       -78.5100   27.6500  -69.8930 C.ar      11 UNK        -0.0823 
     11 C11       -77.4767   26.7614  -70.2090 C.ar      11 UNK        -0.0830 
     12 C12       -76.2917   27.2676  -70.7567 C.ar      11 UNK        -0.1021 
     13 C13       -76.1491   28.6327  -71.0158 C.ar      11 UNK        -0.0753 
     14 C14       -77.2002   29.5038  -70.7205 C.ar      11 UNK        -0.0933 
     15 C15       -74.8538   29.1508  -71.6176 C.3       11 UNK         0.0166 
     16 S16       -74.8155   28.8575  -73.4091 S.3       11 UNK        -0.2615 
     17 C17       -75.0980   30.5294  -74.0810 C.3       11 UNK        -0.0865 
     18 CA        -74.7934   30.6049  -75.6088 C.3       10 UNK         0.0862 
     19 C         -75.1111   31.9842  -76.2654 C.2       10 UNK         0.5551 
     20 N         -76.0120   32.7800  -75.7023 N.am      10 UNK        -0.7319 
     21 O         -74.5873   32.3202  -77.3263 O.2       10 UNK        -0.5018 
     22 N         -73.4528   30.0945  -75.9427 N.am      10 UNK        -0.4509 
     23 C         -72.2844   30.6645  -75.6199 C.2       10 UNK         0.4899 
     24 O         -72.1794   31.7345  -75.0162 O.2       10 UNK        -0.4839 
     25 CA        -71.0222   29.8810  -76.0322 C.3       9 UNK         0.0222 
     26 CB        -69.7101   30.5808  -75.6174 C.3       9 UNK        -0.1966 
     27 N         -71.0468   28.4922  -75.5554 N.am      9 UNK        -0.4218 
     28 C         -71.1327   28.0526  -74.2897 C.2       9 UNK         0.5020 
     29 O         -71.1282   28.7960  -73.3068 O.2       9 UNK        -0.5274 
     30 CA        -71.2282   26.5222  -74.0844 C.3       8 UNK         0.0270 
     31 CB        -71.7630   26.1523  -72.6874 C.3       8 UNK        -0.1976 
     32 N         -72.0554   25.8539  -75.0963 N.am      8 UNK        -0.4313 
     33 C         -71.6668   25.5542  -76.3453 C.2       8 UNK         0.5041 
     34 O         -70.5366   25.7928  -76.7714 O.2       8 UNK        -0.5577 
     35 CA        -72.7100   24.9497  -77.3055 C.3       7 UNK         0.0284 
     36 CB        -72.5800   23.4189  -77.3459 C.3       7 UNK        -0.1958 
     37 N         -74.0905   25.3025  -76.9735 N.am      7 UNK        -0.4454 
     38 C         -74.5863   26.5459  -76.9076 C.2       7 UNK         0.5089 
     39 O         -73.9601   27.5522  -77.2447 O.2       7 UNK        -0.5125 
     40 CA        -76.0061   26.7007  -76.3325 C.3       6 UNK         0.0408 
     41 CB        -77.0109   26.9426  -77.4695 C.3       6 UNK        -0.1791 
     42 N         -76.4804   25.5821  -75.5067 N.am      6 UNK        -0.4762 
     43 C         -75.8787   25.0418  -74.4334 C.2       6 UNK         0.5007 
     44 O         -74.7761   25.3941  -74.0147 O.2       6 UNK        -0.5032 
     45 CA        -76.6032   23.8600  -73.7589 C.3       5 UNK         0.0783 
     46 C46       -77.5254   24.3190  -72.5945 C.3       11 UNK        -0.0857 
     47 S47       -76.6948   24.1442  -70.9801 S.3       11 UNK        -0.2512 
     48 C48       -77.6652   25.2717  -69.9191 C.3       11 UNK         0.0225 
     49 N         -77.3236   23.0401  -74.7398 N.am      5 UNK        -0.4615 
     50 C         -76.7490   22.1162  -75.5225 C.2       4 UNK         0.5053 
     51 O         -75.5419   21.8752  -75.5186 O.2       4 UNK        -0.5105 
     52 CA        -77.6714   21.3117  -76.4556 C.3       4 UNK         0.0263 
     53 CB        -78.1828   20.0503  -75.7412 C.3       4 UNK        -0.1981 
     54 N         -78.8139   22.0900  -76.9389 N.am      4 UNK        -0.4224 
     55 C         -78.7422   22.9993  -77.9206 C.2       3 UNK         0.4895 
     56 O         -77.7191   23.2366  -78.5633 O.2       3 UNK        -0.5091 
     57 CA        -80.0238   23.8007  -78.2219 C.3       3 UNK         0.0250 
     58 CB        -80.8879   23.0624  -79.2570 C.3       3 UNK        -0.1996 
     59 N         -80.8431   24.1305  -77.0451 N.am      3 UNK        -0.4254 
     60 C         -80.3973   24.7948  -75.9711 C.2       2 UNK         0.5004 
     61 O         -79.2145   25.1022  -75.8023 O.2       2 UNK        -0.5226 
     62 CA        -81.4137   25.1580  -74.8843 C.3       2 UNK         0.0269 
     63 CB        -81.7006   23.9573  -73.9651 C.3       2 UNK        -0.1926 
     64 N         -80.8150   26.2441  -74.1192 N.am      2 UNK        -0.4687 
     65 C         -81.4371   27.1583  -73.3716 C.2       1 UNK         0.5165 
     66 O         -82.6498   27.1561  -73.1516 O.2       1 UNK        -0.5079 
     67 H67       -78.5257   30.9110  -75.7194 H         1 UNK         0.0900 
     68 H68       -78.7929   29.5465  -76.8065 H         1 UNK         0.0900 
     69 H69       -77.7136   29.3691  -75.4233 H         1 UNK         0.0900 
     70 H70       -78.5808   28.6169  -73.5143 H         1 UNK         0.2959 
     71 H71       -79.9291   27.7211  -72.0519 H         1 UNK         0.1079 
     72 H72       -81.8710   28.9457  -71.2077 H         1 UNK         0.0837 
     73 H73       -82.0250   29.8349  -72.6982 H         1 UNK         0.0837 
     74 H74       -79.1629   30.7739  -69.2205 H         1 UNK         0.0685 
     75 H75       -80.3261   29.4749  -69.2940 H         1 UNK         0.0685 
     76 H76       -79.4241   27.2727  -69.4545 H         1 UNK         0.1434 
     77 H77       -75.4719   26.6043  -70.9957 H         1 UNK         0.1329 
     78 H78       -77.1000   30.5602  -70.9296 H         1 UNK         0.1335 
     79 H79       -74.0072   28.6337  -71.1631 H         1 UNK         0.0680 
     80 H80       -74.7168   30.2099  -71.3955 H         1 UNK         0.0680 
     81 H81       -74.4755   31.2434  -73.5389 H         1 UNK         0.1032 
     82 H82       -76.1348   30.7933  -73.8700 H         1 UNK         0.1032 
     83 H83       -75.4745   29.9157  -76.1067 H         1 UNK         0.0461 
     84 H84       -76.2248   33.6592  -76.1473 H         1 UNK         0.3453 
     85 H85       -76.4655   32.5392  -74.8368 H         1 UNK         0.3453 
     86 H86       -73.4470   29.2113  -76.4458 H         1 UNK         0.2984 
     87 H87       -71.0357   29.8298  -77.1219 H         1 UNK         0.0554 
     88 H88       -68.8377   30.0229  -75.9572 H         1 UNK         0.0847 
     89 H89       -69.6347   30.6950  -74.5355 H         1 UNK         0.0847 
     90 H90       -69.6464   31.5785  -76.0534 H         1 UNK         0.0847 
     91 H91       -71.0191   27.7781  -76.2748 H         1 UNK         0.3141 
     92 H92       -70.2110   26.1325  -74.1603 H         1 UNK         0.0743 
     93 H93       -72.7610   26.5604  -72.5209 H         1 UNK         0.0784 
     94 H94       -71.8176   25.0717  -72.5547 H         1 UNK         0.0784 
     95 H95       -71.1153   26.5417  -71.9010 H         1 UNK         0.0784 
     96 H96       -73.0205   25.6725  -74.8274 H         1 UNK         0.3213 
     97 H97       -72.5011   25.3419  -78.3030 H         1 UNK         0.0855 
     98 H98       -72.8113   22.9688  -76.3792 H         1 UNK         0.0814 
     99 H99       -71.5651   23.1197  -77.6116 H         1 UNK         0.0814 
    100 H100      -73.2498   22.9822  -78.0871 H         1 UNK         0.0814 
    101 H101      -74.6908   24.5491  -76.6693 H         1 UNK         0.3105 
    102 H102      -75.9996   27.5828  -75.6943 H         1 UNK         0.0547 
    103 H103      -76.7125   27.7933  -78.0838 H         1 UNK         0.0837 
    104 H104      -77.0890   26.0749  -78.1258 H         1 UNK         0.0837 
    105 H105      -78.0068   27.1570  -77.0834 H         1 UNK         0.0837 
    106 H106      -77.4124   25.2398  -75.7360 H         1 UNK         0.3020 
    107 H107      -75.8157   23.2252  -73.3446 H         1 UNK         0.1245 
    108 H108      -78.4252   23.7038  -72.5477 H         1 UNK         0.0781 
    109 H109      -77.8776   25.3441  -72.7284 H         1 UNK         0.0781 
    110 H110      -77.3854   25.0899  -68.8808 H         1 UNK         0.0836 
    111 H111      -78.7189   25.0013  -70.0057 H         1 UNK         0.0836 
    112 H112      -78.3043   23.2444  -74.8654 H         1 UNK         0.3022 
    113 H113      -77.0762   20.9947  -77.3151 H         1 UNK         0.0747 
    114 H114      -78.7802   19.4304  -76.4100 H         1 UNK         0.0793 
    115 H115      -77.3513   19.4371  -75.3906 H         1 UNK         0.0793 
    116 H116      -78.7954   20.2954  -74.8725 H         1 UNK         0.0793 
    117 H117      -79.7001   21.9499  -76.4758 H         1 UNK         0.3047 
    118 H118      -79.7057   24.7484  -78.6620 H         1 UNK         0.0822 
    119 H119      -81.7334   23.6719  -79.5767 H         1 UNK         0.0807 
    120 H120      -81.2794   22.1241  -78.8620 H         1 UNK         0.0807 
    121 H121      -80.3089   22.8235  -80.1505 H         1 UNK         0.0807 
    122 H122      -81.8240   23.8946  -77.0995 H         1 UNK         0.2946 
    123 H123      -82.3347   25.5080  -75.3559 H         1 UNK         0.1144 
    124 H124      -80.7924   23.5867  -73.4885 H         1 UNK         0.0793 
    125 H125      -82.1395   23.1298  -74.5238 H         1 UNK         0.0793 
    126 H126      -82.4054   24.2217  -73.1766 H         1 UNK         0.0793 
    127 H127      -79.8257   26.3558  -74.3080 H         1 UNK         0.2896 
@<TRIPOS>BOND
     1    1    2 1    
     2    1   67 1    
     3    1   68 1    
     4    1   69 1    
     5    2    3 2    
     6    2    4 am   BACKBONE|DICT|INTERRES
     7    4    5 1    
     8    4   70 1    
     9    5    6 1    
    10    5   65 1    
    11    5   71 1    
    12    6    7 1    
    13    6   72 1    
    14    6   73 1    
    15    7    8 1    
    16    8    9 1    
    17    8   74 1    
    18    8   75 1    
    19    9   10 ar   
    20    9   14 ar   
    21   10   11 ar   
    22   10   76 1    
    23   11   12 ar   
    24   11   48 1    
    25   12   13 ar   
    26   12   77 1    
    27   13   14 ar   
    28   13   15 1    
    29   14   78 1    
    30   15   16 1    
    31   15   79 1    
    32   15   80 1    
    33   16   17 1    
    34   17   18 1    
    35   17   81 1    
    36   17   82 1    
    37   18   19 1    
    38   18   22 1    
    39   18   83 1    
    40   19   20 am   BACKBONE|DICT|INTERRES
    41   19   21 2    
    42   20   84 1    
    43   20   85 1    
    44   22   23 am   BACKBONE|DICT|INTERRES
    45   22   86 1    
    46   23   24 2    
    47   23   25 1    
    48   25   26 1    
    49   25   27 1    
    50   25   87 1    
    51   26   88 1    
    52   26   89 1    
    53   26   90 1    
    54   27   28 am   BACKBONE|DICT|INTERRES
    55   27   91 1    
    56   28   29 2    
    57   28   30 1    
    58   30   31 1    
    59   30   32 1    
    60   30   92 1    
    61   31   93 1    
    62   31   94 1    
    63   31   95 1    
    64   32   33 am   BACKBONE|DICT|INTERRES
    65   32   96 1    
    66   33   34 2    
    67   33   35 1    
    68   35   36 1    
    69   35   37 1    
    70   35   97 1    
    71   36   98 1    
    72   36   99 1    
    73   36  100 1    
    74   37   38 am   BACKBONE|DICT|INTERRES
    75   37  101 1    
    76   38   39 2    
    77   38   40 1    
    78   40   41 1    
    79   40   42 1    
    80   40  102 1    
    81   41  103 1    
    82   41  104 1    
    83   41  105 1    
    84   42   43 am   BACKBONE|DICT|INTERRES
    85   42  106 1    
    86   43   44 2    
    87   43   45 1    
    88   45   46 1    
    89   45   49 1    
    90   45  107 1    
    91   46   47 1    
    92   46  108 1    
    93   46  109 1    
    94   47   48 1    
    95   48  110 1    
    96   48  111 1    
    97   49   50 am   BACKBONE|DICT|INTERRES
    98   49  112 1    
    99   50   51 2    
   100   50   52 1    
   101   52   53 1    
   102   52   54 1    
   103   52  113 1    
   104   53  114 1    
   105   53  115 1    
   106   53  116 1    
   107   54   55 am   BACKBONE|DICT|INTERRES
   108   54  117 1    
   109   55   56 2    
   110   55   57 1    
   111   57   58 1    
   112   57   59 1    
   113   57  118 1    
   114   58  119 1    
   115   58  120 1    
   116   58  121 1    
   117   59   60 am   BACKBONE|DICT|INTERRES
   118   59  122 1    
   119   60   61 2    
   120   60   62 1    
   121   62   63 1    
   122   62   64 1    
   123   62  123 1    
   124   63  124 1    
   125   63  125 1    
   126   63  126 1    
   127   64   65 am   BACKBONE|DICT|INTERRES
   128   64  127 1    
   129   65   66 2    
@<TRIPOS>SUBSTRUCTURE
     1 UNK         1 GROUP             0       ****    0 ROOT    
