@<TRIPOS>MOLECULE
3R135
127   129    1
SMALL
USER_CHARGES


@<TRIPOS>ATOM
      1 CA        -79.8279   24.0700  -70.2855 C.3       0 UNK        -0.1998 
      2 C         -81.0281   24.7561  -70.9182 C.2       0 UNK         0.4909 
      3 O         -82.0882   24.1416  -71.0400 O.2       0 UNK        -0.5240 
      4 N         -80.8743   26.0294  -71.3079 N.am      1 UNK        -0.4739 
      5 CA        -81.9428   26.8589  -71.8875 C.3       1 UNK         0.0864 
      6 C6        -81.5864   28.3658  -71.8875 C.3       11 UNK        -0.0881 
      7 S7        -81.1883   28.9725  -70.2091 S.3       11 UNK        -0.2682 
      8 C8        -80.1180   30.4123  -70.5451 C.3       11 UNK         0.0289 
      9 C9        -78.8988   30.0682  -71.3923 C.ar      11 UNK        -0.0687 
     10 C10       -78.0250   29.0497  -71.0044 C.ar      11 UNK        -0.0823 
     11 C11       -76.9434   28.6972  -71.8149 C.ar      11 UNK        -0.0830 
     12 C12       -76.7157   29.3958  -73.0061 C.ar      11 UNK        -0.1021 
     13 C13       -77.5596   30.4483  -73.3892 C.ar      11 UNK        -0.0753 
     14 C14       -78.6527   30.7664  -72.5775 C.ar      11 UNK        -0.0933 
     15 C15       -77.3699   31.2560  -74.6758 C.3       11 UNK         0.0166 
     16 S16       -75.7803   31.0440  -75.5447 S.3       11 UNK        -0.2615 
     17 C17       -74.6212   31.9610  -74.4829 C.3       11 UNK        -0.0865 
     18 CA        -73.1491   31.5431  -74.7574 C.3       10 UNK         0.0862 
     19 C         -72.1582   32.6694  -74.3341 C.2       10 UNK         0.5551 
     20 N         -71.2284   32.4372  -73.4146 N.am      10 UNK        -0.7319 
     21 O         -72.2281   33.7770  -74.8613 O.2       10 UNK        -0.5018 
     22 N         -72.8297   30.2220  -74.1805 N.am      10 UNK        -0.4509 
     23 C         -71.8817   29.3969  -74.6497 C.2       10 UNK         0.4899 
     24 O         -71.2970   29.5645  -75.7203 O.2       10 UNK        -0.4839 
     25 CA        -71.4413   28.2334  -73.7458 C.3       9 UNK         0.0222 
     26 CB        -71.9793   28.3043  -72.3014 C.3       9 UNK        -0.1966 
     27 N         -71.8043   26.9458  -74.3373 N.am      9 UNK        -0.4218 
     28 C         -70.9862   25.8881  -74.4242 C.2       9 UNK         0.5020 
     29 O         -69.7967   25.9105  -74.1021 O.2       9 UNK        -0.5274 
     30 CA        -71.5915   24.5612  -74.9145 C.3       8 UNK         0.0270 
     31 CB        -72.2979   23.8343  -73.7579 C.3       8 UNK        -0.1976 
     32 N         -72.5189   24.7159  -76.0359 N.am      8 UNK        -0.4313 
     33 C         -72.1466   24.9704  -77.2981 C.2       8 UNK         0.5041 
     34 O         -70.9745   25.0976  -77.6552 O.2       8 UNK        -0.5577 
     35 CA        -73.2682   25.0949  -78.3454 C.3       7 UNK         0.0284 
     36 CB        -73.6762   23.7097  -78.8725 C.3       7 UNK        -0.1958 
     37 N         -74.4481   25.7864  -77.8254 N.am      7 UNK        -0.4454 
     38 C         -74.4804   27.0855  -77.5017 C.2       7 UNK         0.5089 
     39 O         -73.5553   27.8673  -77.7177 O.2       7 UNK        -0.5125 
     40 CA        -75.7395   27.5921  -76.7800 C.3       6 UNK         0.0408 
     41 CB        -76.8012   28.0760  -77.7779 C.3       6 UNK        -0.1791 
     42 N         -76.3219   26.6153  -75.8575 N.am      6 UNK        -0.4762 
     43 C         -75.7030   26.1625  -74.7573 C.2       6 UNK         0.5007 
     44 O         -74.5826   26.5295  -74.4060 O.2       6 UNK        -0.5032 
     45 CA        -76.4398   25.0824  -73.9465 C.3       5 UNK         0.0783 
     46 C46       -77.4906   25.7080  -72.9918 C.3       11 UNK        -0.0857 
     47 S47       -76.8572   25.9505  -71.2997 S.3       11 UNK        -0.2512 
     48 C48       -76.0169   27.5648  -71.3969 C.3       11 UNK         0.0225 
     49 N         -77.0330   24.0912  -74.8459 N.am      5 UNK        -0.4615 
     50 C         -76.3333   23.1986  -75.5596 C.2       4 UNK         0.5053 
     51 O         -75.1117   23.0716  -75.4826 O.2       4 UNK        -0.5105 
     52 CA        -77.1240   22.3364  -76.5603 C.3       4 UNK         0.0263 
     53 CB        -77.6684   21.0752  -75.8717 C.3       4 UNK        -0.1981 
     54 N         -78.2287   23.0662  -77.1907 N.am      4 UNK        -0.4224 
     55 C         -78.0698   24.1219  -78.0021 C.2       3 UNK         0.4895 
     56 O         -76.9716   24.5366  -78.3693 O.2       3 UNK        -0.5091 
     57 CA        -79.3383   24.8763  -78.4408 C.3       3 UNK         0.0250 
     58 CB        -79.8475   24.3275  -79.7829 C.3       3 UNK        -0.1996 
     59 N         -80.4325   24.8646  -77.4610 N.am      3 UNK        -0.4254 
     60 C         -80.3531   25.2981  -76.1945 C.2       2 UNK         0.5004 
     61 O         -79.3151   25.7211  -75.6769 O.2       2 UNK        -0.5226 
     62 CA        -81.6379   25.1981  -75.3625 C.3       2 UNK         0.0269 
     63 CB        -82.0716   23.7307  -75.1753 C.3       2 UNK        -0.1926 
     64 N         -81.4231   25.8008  -74.0490 N.am      2 UNK        -0.4687 
     65 C         -82.3615   26.3909  -73.2985 C.2       1 UNK         0.5165 
     66 O         -83.5260   26.5518  -73.6677 O.2       1 UNK        -0.5079 
     67 H67       -79.2667   23.5167  -71.0378 H         1 UNK         0.0900 
     68 H68       -80.1532   23.3680  -69.5182 H         1 UNK         0.0900 
     69 H69       -79.1609   24.7904  -69.8133 H         1 UNK         0.0900 
     70 H70       -79.9905   26.4958  -71.1597 H         1 UNK         0.2959 
     71 H71       -82.8237   26.7324  -71.2535 H         1 UNK         0.1079 
     72 H72       -80.7476   28.5491  -72.5606 H         1 UNK         0.0837 
     73 H73       -82.4200   28.9584  -72.2695 H         1 UNK         0.0837 
     74 H74       -80.7199   31.1851  -71.0259 H         1 UNK         0.0685 
     75 H75       -79.7813   30.8303  -69.5956 H         1 UNK         0.0685 
     76 H76       -78.2043   28.5101  -70.0843 H         1 UNK         0.1434 
     77 H77       -75.8803   29.1118  -73.6301 H         1 UNK         0.1329 
     78 H78       -79.3229   31.5607  -72.8774 H         1 UNK         0.1335 
     79 H79       -78.1655   30.9764  -75.3677 H         1 UNK         0.0680 
     80 H80       -77.5055   32.3178  -74.4639 H         1 UNK         0.0680 
     81 H81       -74.8773   31.8170  -73.4319 H         1 UNK         0.1032 
     82 H82       -74.7804   33.0211  -74.6904 H         1 UNK         0.1032 
     83 H83       -73.0310   31.4696  -75.8406 H         1 UNK         0.0461 
     84 H84       -71.1511   31.5346  -72.9766 H         1 UNK         0.3453 
     85 H85       -70.5940   33.1778  -73.1590 H         1 UNK         0.3453 
     86 H86       -73.2544   30.0130  -73.2900 H         1 UNK         0.2984 
     87 H87       -70.3543   28.3175  -73.6866 H         1 UNK         0.0554 
     88 H88       -71.5661   27.4997  -71.6927 H         1 UNK         0.0847 
     89 H89       -73.0632   28.2152  -72.2659 H         1 UNK         0.0847 
     90 H90       -71.7008   29.2407  -71.8162 H         1 UNK         0.0847 
     91 H91       -72.7838   26.8309  -74.5948 H         1 UNK         0.3141 
     92 H92       -70.7663   23.9279  -75.2478 H         1 UNK         0.0743 
     93 H93       -73.1465   24.4040  -73.3787 H         1 UNK         0.0784 
     94 H94       -72.6639   22.8556  -74.0691 H         1 UNK         0.0784 
     95 H95       -71.6145   23.6738  -72.9230 H         1 UNK         0.0784 
     96 H96       -73.5027   24.5787  -75.8374 H         1 UNK         0.3213 
     97 H97       -72.8782   25.6771  -79.1832 H         1 UNK         0.0855 
     98 H98       -74.0866   23.0806  -78.0820 H         1 UNK         0.0814 
     99 H99       -72.8183   23.1853  -79.2953 H         1 UNK         0.0814 
    100 H100      -74.4276   23.7903  -79.6584 H         1 UNK         0.0814 
    101 H101      -75.3004   25.2415  -77.7227 H         1 UNK         0.3105 
    102 H102      -75.4244   28.4373  -76.1734 H         1 UNK         0.0547 
    103 H103      -76.4092   28.8872  -78.3926 H         1 UNK         0.0837 
    104 H104      -77.1136   27.2800  -78.4528 H         1 UNK         0.0837 
    105 H105      -77.6850   28.4566  -77.2656 H         1 UNK         0.0837 
    106 H106      -77.2558   26.2766  -76.0606 H         1 UNK         0.3020 
    107 H107      -75.6891   24.5571  -73.3511 H         1 UNK         0.1245 
    108 H108      -78.3423   25.0345  -72.8913 H         1 UNK         0.0781 
    109 H109      -77.9138   26.6368  -73.3804 H         1 UNK         0.0781 
    110 H110      -75.1753   27.4789  -72.0801 H         1 UNK         0.0836 
    111 H111      -75.5905   27.7979  -70.4204 H         1 UNK         0.0836 
    112 H112      -78.0190   24.2082  -75.0418 H         1 UNK         0.3022 
    113 H113      -76.4329   22.0267  -77.3473 H         1 UNK         0.0747 
    114 H114      -78.1625   20.4154  -76.5852 H         1 UNK         0.0793 
    115 H115      -76.8609   20.5043  -75.4109 H         1 UNK         0.0793 
    116 H116      -78.3849   21.3187  -75.0860 H         1 UNK         0.0793 
    117 H117      -79.1667   22.7822  -76.9494 H         1 UNK         0.3047 
    118 H118      -79.0560   25.9199  -78.5883 H         1 UNK         0.0822 
    119 H119      -80.6751   24.9233  -80.1683 H         1 UNK         0.0807 
    120 H120      -80.1877   23.2949  -79.6952 H         1 UNK         0.0807 
    121 H121      -79.0593   24.3479  -80.5372 H         1 UNK         0.0807 
    122 H122      -81.3229   24.5253  -77.7965 H         1 UNK         0.2946 
    123 H123      -82.4181   25.7486  -75.8936 H         1 UNK         0.1144 
    124 H124      -81.3000   23.1444  -74.6744 H         1 UNK         0.0793 
    125 H125      -82.2847   23.2481  -76.1296 H         1 UNK         0.0793 
    126 H126      -82.9795   23.6610  -74.5756 H         1 UNK         0.0793 
    127 H127      -80.4682   25.7762  -73.7186 H         1 UNK         0.2896 
@<TRIPOS>BOND
     1    1    2 1    
     2    1   67 1    
     3    1   68 1    
     4    1   69 1    
     5    2    3 2    
     6    2    4 am   BACKBONE|DICT|INTERRES
     7    4    5 1    
     8    4   70 1    
     9    5    6 1    
    10    5   65 1    
    11    5   71 1    
    12    6    7 1    
    13    6   72 1    
    14    6   73 1    
    15    7    8 1    
    16    8    9 1    
    17    8   74 1    
    18    8   75 1    
    19    9   10 ar   
    20    9   14 ar   
    21   10   11 ar   
    22   10   76 1    
    23   11   12 ar   
    24   11   48 1    
    25   12   13 ar   
    26   12   77 1    
    27   13   14 ar   
    28   13   15 1    
    29   14   78 1    
    30   15   16 1    
    31   15   79 1    
    32   15   80 1    
    33   16   17 1    
    34   17   18 1    
    35   17   81 1    
    36   17   82 1    
    37   18   19 1    
    38   18   22 1    
    39   18   83 1    
    40   19   20 am   BACKBONE|DICT|INTERRES
    41   19   21 2    
    42   20   84 1    
    43   20   85 1    
    44   22   23 am   BACKBONE|DICT|INTERRES
    45   22   86 1    
    46   23   24 2    
    47   23   25 1    
    48   25   26 1    
    49   25   27 1    
    50   25   87 1    
    51   26   88 1    
    52   26   89 1    
    53   26   90 1    
    54   27   28 am   BACKBONE|DICT|INTERRES
    55   27   91 1    
    56   28   29 2    
    57   28   30 1    
    58   30   31 1    
    59   30   32 1    
    60   30   92 1    
    61   31   93 1    
    62   31   94 1    
    63   31   95 1    
    64   32   33 am   BACKBONE|DICT|INTERRES
    65   32   96 1    
    66   33   34 2    
    67   33   35 1    
    68   35   36 1    
    69   35   37 1    
    70   35   97 1    
    71   36   98 1    
    72   36   99 1    
    73   36  100 1    
    74   37   38 am   BACKBONE|DICT|INTERRES
    75   37  101 1    
    76   38   39 2    
    77   38   40 1    
    78   40   41 1    
    79   40   42 1    
    80   40  102 1    
    81   41  103 1    
    82   41  104 1    
    83   41  105 1    
    84   42   43 am   BACKBONE|DICT|INTERRES
    85   42  106 1    
    86   43   44 2    
    87   43   45 1    
    88   45   46 1    
    89   45   49 1    
    90   45  107 1    
    91   46   47 1    
    92   46  108 1    
    93   46  109 1    
    94   47   48 1    
    95   48  110 1    
    96   48  111 1    
    97   49   50 am   BACKBONE|DICT|INTERRES
    98   49  112 1    
    99   50   51 2    
   100   50   52 1    
   101   52   53 1    
   102   52   54 1    
   103   52  113 1    
   104   53  114 1    
   105   53  115 1    
   106   53  116 1    
   107   54   55 am   BACKBONE|DICT|INTERRES
   108   54  117 1    
   109   55   56 2    
   110   55   57 1    
   111   57   58 1    
   112   57   59 1    
   113   57  118 1    
   114   58  119 1    
   115   58  120 1    
   116   58  121 1    
   117   59   60 am   BACKBONE|DICT|INTERRES
   118   59  122 1    
   119   60   61 2    
   120   60   62 1    
   121   62   63 1    
   122   62   64 1    
   123   62  123 1    
   124   63  124 1    
   125   63  125 1    
   126   63  126 1    
   127   64   65 am   BACKBONE|DICT|INTERRES
   128   64  127 1    
   129   65   66 2    
@<TRIPOS>SUBSTRUCTURE
     1 UNK         1 GROUP             0       ****    0 ROOT    
