@<TRIPOS>MOLECULE
3R135
127   129    1
SMALL
USER_CHARGES


@<TRIPOS>ATOM
      1 CA        -78.7075   20.7838  -72.5129 C.3       0 UNK        -0.1998 
      2 C         -79.6734   21.9266  -72.2423 C.2       0 UNK         0.4909 
      3 O         -80.8599   21.8106  -72.5529 O.2       0 UNK        -0.5240 
      4 N         -79.1772   23.0320  -71.6695 N.am      1 UNK        -0.4739 
      5 CA        -79.9390   24.2519  -71.3803 C.3       1 UNK         0.0864 
      6 C6        -79.1270   25.2832  -70.5524 C.3       11 UNK        -0.0881 
      7 S7        -77.4351   25.6168  -71.1671 S.3       11 UNK        -0.2682 
      8 C8        -77.2197   27.3743  -70.7372 C.3       11 UNK         0.0289 
      9 C9        -77.3653   28.2859  -71.9479 C.ar      11 UNK        -0.0687 
     10 C10       -78.6242   28.5527  -72.4947 C.ar      11 UNK        -0.0823 
     11 C11       -78.7532   29.4031  -73.5982 C.ar      11 UNK        -0.0830 
     12 C12       -77.6154   30.0123  -74.1371 C.ar      11 UNK        -0.1021 
     13 C13       -76.3480   29.7226  -73.6226 C.ar      11 UNK        -0.0753 
     14 C14       -76.2319   28.8686  -72.5228 C.ar      11 UNK        -0.0933 
     15 C15       -75.1003   30.2814  -74.2881 C.3       11 UNK         0.0166 
     16 S16       -74.2163   31.4560  -73.2248 S.3       11 UNK        -0.2615 
     17 C17       -72.8995   31.9952  -74.3714 C.3       11 UNK        -0.0865 
     18 CA        -71.4618   31.6340  -73.9185 C.3       10 UNK         0.0862 
     19 C         -71.0132   32.4400  -72.6625 C.2       10 UNK         0.5551 
     20 N         -70.6596   31.8017  -71.5530 N.am      10 UNK        -0.7319 
     21 O         -70.9680   33.6673  -72.7046 O.2       10 UNK        -0.5018 
     22 N         -71.2417   30.1780  -73.8313 N.am      10 UNK        -0.4509 
     23 C         -70.0445   29.5990  -73.9855 C.2       10 UNK         0.4899 
     24 O         -69.0361   30.2154  -74.3321 O.2       10 UNK        -0.4839 
     25 CA        -69.9061   28.0936  -73.6945 C.3       9 UNK         0.0222 
     26 CB        -69.5252   27.8620  -72.2189 C.3       9 UNK        -0.1966 
     27 N         -71.0311   27.2351  -74.0884 N.am      9 UNK        -0.4218 
     28 C         -72.2743   27.1712  -73.5979 C.2       9 UNK         0.5020 
     29 O         -72.7392   27.9854  -72.7987 O.2       9 UNK        -0.5274 
     30 CA        -73.1210   25.9738  -74.0787 C.3       8 UNK         0.0270 
     31 CB        -74.4148   25.7937  -73.2660 C.3       8 UNK        -0.1976 
     32 N         -73.4590   26.0350  -75.5027 N.am      8 UNK        -0.4313 
     33 C         -72.6062   25.8698  -76.5230 C.2       8 UNK         0.5041 
     34 O         -71.4057   25.6298  -76.3771 O.2       8 UNK        -0.5577 
     35 CA        -73.1807   26.0043  -77.9432 C.3       7 UNK         0.0284 
     36 CB        -73.7959   24.6748  -78.4095 C.3       7 UNK        -0.1958 
     37 N         -74.1774   27.0718  -78.0524 N.am      7 UNK        -0.4454 
     38 C         -73.9118   28.3826  -77.9787 C.2       7 UNK         0.5089 
     39 O         -72.7763   28.8405  -77.8528 O.2       7 UNK        -0.5125 
     40 CA        -75.1039   29.3584  -78.0262 C.3       6 UNK         0.0408 
     41 CB        -75.4387   29.7677  -79.4737 C.3       6 UNK        -0.1791 
     42 N         -76.2892   28.8916  -77.2898 N.am      6 UNK        -0.4762 
     43 C         -77.1256   27.8891  -77.5922 C.2       6 UNK         0.5007 
     44 O         -77.0713   27.2354  -78.6363 O.2       6 UNK        -0.5032 
     45 CA        -78.1620   27.5302  -76.5080 C.3       5 UNK         0.0783 
     46 C46       -79.4609   28.3509  -76.7001 C.3       11 UNK        -0.0857 
     47 S47       -80.6018   28.2142  -75.2853 S.3       11 UNK        -0.2512 
     48 C48       -80.1170   29.6259  -74.2356 C.3       11 UNK         0.0225 
     49 N         -78.3847   26.0821  -76.4202 N.am      5 UNK        -0.4615 
     50 C         -77.4145   25.2033  -76.1241 C.2       4 UNK         0.5053 
     51 O         -76.2470   25.5404  -75.9162 O.2       4 UNK        -0.5105 
     52 CA        -77.7768   23.7113  -76.0564 C.3       4 UNK         0.0263 
     53 CB        -77.0073   22.9934  -74.9320 C.3       4 UNK        -0.1981 
     54 N         -79.2123   23.4911  -75.8653 N.am      4 UNK        -0.4224 
     55 C         -79.9749   22.6959  -76.6307 C.2       3 UNK         0.4895 
     56 O         -79.5574   22.1232  -77.6383 O.2       3 UNK        -0.5091 
     57 CA        -81.4406   22.4613  -76.2144 C.3       3 UNK         0.0250 
     58 CB        -81.6669   20.9853  -75.8436 C.3       3 UNK        -0.1996 
     59 N         -81.8688   23.3004  -75.0940 N.am      3 UNK        -0.4254 
     60 C         -82.3307   24.5528  -75.2204 C.2       2 UNK         0.5004 
     61 O         -82.5021   25.1079  -76.3058 O.2       2 UNK        -0.5226 
     62 CA        -82.6392   25.3277  -73.9231 C.3       2 UNK         0.0269 
     63 CB        -84.1392   25.2460  -73.5972 C.3       2 UNK        -0.1926 
     64 N         -81.8694   24.8922  -72.7513 N.am      2 UNK        -0.4687 
     65 C         -80.5311   24.8545  -72.6700 C.2       1 UNK         0.5165 
     66 O         -79.7822   25.1991  -73.5841 O.2       1 UNK        -0.5079 
     67 H67       -78.9624   19.9244  -71.8936 H         1 UNK         0.0900 
     68 H68       -78.7694   20.4804  -73.5575 H         1 UNK         0.0900 
     69 H69       -77.6758   21.0637  -72.3009 H         1 UNK         0.0900 
     70 H70       -78.1895   23.0936  -71.4663 H         1 UNK         0.2959 
     71 H71       -80.7781   23.9422  -70.7531 H         1 UNK         0.1079 
     72 H72       -79.0251   24.9150  -69.5304 H         1 UNK         0.0837 
     73 H73       -79.6845   26.2173  -70.4661 H         1 UNK         0.0837 
     74 H74       -77.9259   27.6718  -69.9612 H         1 UNK         0.0685 
     75 H75       -76.2286   27.4944  -70.2968 H         1 UNK         0.0685 
     76 H76       -79.5019   28.0789  -72.0781 H         1 UNK         0.1434 
     77 H77       -77.7158   30.6737  -74.9869 H         1 UNK         0.1329 
     78 H78       -75.2507   28.6508  -72.1226 H         1 UNK         0.1335 
     79 H79       -75.3628   30.7914  -75.2152 H         1 UNK         0.0680 
     80 H80       -74.4334   29.4601  -74.5561 H         1 UNK         0.0680 
     81 H81       -73.0742   31.5710  -75.3614 H         1 UNK         0.1032 
     82 H82       -72.9916   33.0745  -74.5075 H         1 UNK         0.1032 
     83 H83       -70.8137   31.9996  -74.7176 H         1 UNK         0.0461 
     84 H84       -70.7071   30.7969  -71.5094 H         1 UNK         0.3453 
     85 H85       -70.3646   32.3320  -70.7484 H         1 UNK         0.3453 
     86 H86       -72.0104   29.6098  -73.4844 H         1 UNK         0.2984 
     87 H87       -69.0672   27.7465  -74.2999 H         1 UNK         0.0554 
     88 H88       -68.6366   28.4350  -71.9501 H         1 UNK         0.0847 
     89 H89       -69.3016   26.8125  -72.0273 H         1 UNK         0.0847 
     90 H90       -70.3226   28.1635  -71.5390 H         1 UNK         0.0847 
     91 H91       -70.8304   26.5765  -74.8397 H         1 UNK         0.3141 
     92 H92       -72.5151   25.0800  -73.9156 H         1 UNK         0.0743 
     93 H93       -74.8863   24.8352  -73.4819 H         1 UNK         0.0784 
     94 H94       -74.2232   25.8230  -72.1926 H         1 UNK         0.0784 
     95 H95       -75.1420   26.5716  -73.4937 H         1 UNK         0.0784 
     96 H96       -74.4486   26.1339  -75.7201 H         1 UNK         0.3213 
     97 H97       -72.3522   26.2483  -78.6118 H         1 UNK         0.0855 
     98 H98       -74.6420   24.3782  -77.7889 H         1 UNK         0.0814 
     99 H99       -73.0613   23.8696  -78.3641 H         1 UNK         0.0814 
    100 H100      -74.1428   24.7383  -79.4409 H         1 UNK         0.0814 
    101 H101      -75.1465   26.7963  -78.1741 H         1 UNK         0.3105 
    102 H102      -74.7798   30.2628  -77.5094 H         1 UNK         0.0547 
    103 H103      -74.5789   30.2424  -79.9482 H         1 UNK         0.0837 
    104 H104      -75.7119   28.9127  -80.0923 H         1 UNK         0.0837 
    105 H105      -76.2610   30.4822  -79.5050 H         1 UNK         0.0837 
    106 H106      -76.4192   29.3373  -76.3935 H         1 UNK         0.3020 
    107 H107      -77.7225   27.7937  -75.5468 H         1 UNK         0.1245 
    108 H108      -79.2390   29.4084  -76.8566 H         1 UNK         0.0781 
    109 H109      -79.9874   28.0193  -77.5969 H         1 UNK         0.0781 
    110 H110      -80.8656   29.7553  -73.4526 H         1 UNK         0.0836 
    111 H111      -80.1305   30.5452  -74.8231 H         1 UNK         0.0836 
    112 H112      -79.3256   25.7532  -76.5747 H         1 UNK         0.3022 
    113 H113      -77.4504   23.2885  -77.0084 H         1 UNK         0.0747 
    114 H114      -75.9292   23.0791  -75.0733 H         1 UNK         0.0793 
    115 H115      -77.2443   23.4170  -73.9552 H         1 UNK         0.0793 
    116 H116      -77.2418   21.9298  -74.9095 H         1 UNK         0.0793 
    117 H117      -79.6218   23.9780  -75.0709 H         1 UNK         0.3047 
    118 H118      -82.0614   22.6851  -77.0848 H         1 UNK         0.0822 
    119 H119      -82.7057   20.7986  -75.5709 H         1 UNK         0.0807 
    120 H120      -81.0397   20.6771  -75.0068 H         1 UNK         0.0807 
    121 H121      -81.4318   20.3300  -76.6834 H         1 UNK         0.0807 
    122 H122      -81.7353   22.9170  -74.1636 H         1 UNK         0.2946 
    123 H123      -82.3906   26.3732  -74.1056 H         1 UNK         0.1144 
    124 H124      -84.7408   25.5905  -74.4397 H         1 UNK         0.0793 
    125 H125      -84.3957   25.8725  -72.7426 H         1 UNK         0.0793 
    126 H126      -84.4484   24.2244  -73.3722 H         1 UNK         0.0793 
    127 H127      -82.4100   24.5513  -71.9691 H         1 UNK         0.2896 
@<TRIPOS>BOND
     1    1    2 1    
     2    1   67 1    
     3    1   68 1    
     4    1   69 1    
     5    2    3 2    
     6    2    4 am   BACKBONE|DICT|INTERRES
     7    4    5 1    
     8    4   70 1    
     9    5    6 1    
    10    5   65 1    
    11    5   71 1    
    12    6    7 1    
    13    6   72 1    
    14    6   73 1    
    15    7    8 1    
    16    8    9 1    
    17    8   74 1    
    18    8   75 1    
    19    9   10 ar   
    20    9   14 ar   
    21   10   11 ar   
    22   10   76 1    
    23   11   12 ar   
    24   11   48 1    
    25   12   13 ar   
    26   12   77 1    
    27   13   14 ar   
    28   13   15 1    
    29   14   78 1    
    30   15   16 1    
    31   15   79 1    
    32   15   80 1    
    33   16   17 1    
    34   17   18 1    
    35   17   81 1    
    36   17   82 1    
    37   18   19 1    
    38   18   22 1    
    39   18   83 1    
    40   19   20 am   BACKBONE|DICT|INTERRES
    41   19   21 2    
    42   20   84 1    
    43   20   85 1    
    44   22   23 am   BACKBONE|DICT|INTERRES
    45   22   86 1    
    46   23   24 2    
    47   23   25 1    
    48   25   26 1    
    49   25   27 1    
    50   25   87 1    
    51   26   88 1    
    52   26   89 1    
    53   26   90 1    
    54   27   28 am   BACKBONE|DICT|INTERRES
    55   27   91 1    
    56   28   29 2    
    57   28   30 1    
    58   30   31 1    
    59   30   32 1    
    60   30   92 1    
    61   31   93 1    
    62   31   94 1    
    63   31   95 1    
    64   32   33 am   BACKBONE|DICT|INTERRES
    65   32   96 1    
    66   33   34 2    
    67   33   35 1    
    68   35   36 1    
    69   35   37 1    
    70   35   97 1    
    71   36   98 1    
    72   36   99 1    
    73   36  100 1    
    74   37   38 am   BACKBONE|DICT|INTERRES
    75   37  101 1    
    76   38   39 2    
    77   38   40 1    
    78   40   41 1    
    79   40   42 1    
    80   40  102 1    
    81   41  103 1    
    82   41  104 1    
    83   41  105 1    
    84   42   43 am   BACKBONE|DICT|INTERRES
    85   42  106 1    
    86   43   44 2    
    87   43   45 1    
    88   45   46 1    
    89   45   49 1    
    90   45  107 1    
    91   46   47 1    
    92   46  108 1    
    93   46  109 1    
    94   47   48 1    
    95   48  110 1    
    96   48  111 1    
    97   49   50 am   BACKBONE|DICT|INTERRES
    98   49  112 1    
    99   50   51 2    
   100   50   52 1    
   101   52   53 1    
   102   52   54 1    
   103   52  113 1    
   104   53  114 1    
   105   53  115 1    
   106   53  116 1    
   107   54   55 am   BACKBONE|DICT|INTERRES
   108   54  117 1    
   109   55   56 2    
   110   55   57 1    
   111   57   58 1    
   112   57   59 1    
   113   57  118 1    
   114   58  119 1    
   115   58  120 1    
   116   58  121 1    
   117   59   60 am   BACKBONE|DICT|INTERRES
   118   59  122 1    
   119   60   61 2    
   120   60   62 1    
   121   62   63 1    
   122   62   64 1    
   123   62  123 1    
   124   63  124 1    
   125   63  125 1    
   126   63  126 1    
   127   64   65 am   BACKBONE|DICT|INTERRES
   128   64  127 1    
   129   65   66 2    
@<TRIPOS>SUBSTRUCTURE
     1 UNK         1 GROUP             0       ****    0 ROOT    
