@<TRIPOS>MOLECULE
3R135
127   129    1
SMALL
USER_CHARGES


@<TRIPOS>ATOM
      1 CA        -80.1027   26.9714  -71.9031 C.3       0 UNK        -0.1998 
      2 C         -80.4818   27.1076  -73.3697 C.2       0 UNK         0.4909 
      3 O         -81.5019   26.5613  -73.7936 O.2       0 UNK        -0.5240 
      4 N         -79.6760   27.8441  -74.1459 N.am      1 UNK        -0.4739 
      5 CA        -79.8560   28.0667  -75.5839 C.3       1 UNK         0.0864 
      6 C6        -78.8635   29.1032  -76.1682 C.3       11 UNK        -0.0881 
      7 S7        -78.8312   30.6826  -75.2508 S.3       11 UNK        -0.2682 
      8 C8        -77.0888   30.7565  -74.7277 C.3       11 UNK         0.0289 
      9 C9        -76.8356   29.9895  -73.4379 C.ar      11 UNK        -0.0687 
     10 C10       -76.6689   28.6003  -73.4528 C.ar      11 UNK        -0.0823 
     11 C11       -76.4773   27.8953  -72.2608 C.ar      11 UNK        -0.0830 
     12 C12       -76.4041   28.5956  -71.0547 C.ar      11 UNK        -0.1021 
     13 C13       -76.5231   29.9876  -71.0315 C.ar      11 UNK        -0.0753 
     14 C14       -76.7542   30.6776  -72.2241 C.ar      11 UNK        -0.0933 
     15 C15       -76.4152   30.7460  -69.7171 C.3       11 UNK         0.0166 
     16 S16       -74.7603   31.4725  -69.4839 S.3       11 UNK        -0.2615 
     17 C17       -73.7131   29.9853  -69.2972 C.3       11 UNK        -0.0865 
     18 CA        -72.6055   29.8707  -70.3778 C.3       10 UNK         0.0862 
     19 C         -71.7590   28.5879  -70.1477 C.2       10 UNK         0.5551 
     20 N         -70.7003   28.6794  -69.3543 N.am      10 UNK        -0.7319 
     21 O         -72.0797   27.5081  -70.6385 O.2       10 UNK        -0.5018 
     22 N         -73.1401   29.9877  -71.7457 N.am      10 UNK        -0.4509 
     23 C         -72.3866   30.1030  -72.8459 C.2       10 UNK         0.4899 
     24 O         -71.1522   30.0693  -72.8438 O.2       10 UNK        -0.4839 
     25 CA        -73.1239   30.3740  -74.1663 C.3       9 UNK         0.0222 
     26 CB        -73.5727   31.8514  -74.2110 C.3       9 UNK        -0.1966 
     27 N         -72.1942   30.0613  -75.2543 N.am      9 UNK        -0.4218 
     28 C         -72.3985   29.9311  -76.5717 C.2       9 UNK         0.5020 
     29 O         -71.4942   29.5676  -77.3254 O.2       9 UNK        -0.5274 
     30 CA        -73.7635   30.2795  -77.1930 C.3       8 UNK         0.0270 
     31 CB        -73.7055   31.6437  -77.9032 C.3       8 UNK        -0.1976 
     32 N         -74.1535   29.2580  -78.1636 N.am      8 UNK        -0.4313 
     33 C         -74.7815   28.1232  -77.8407 C.2       8 UNK         0.5041 
     34 O         -75.2018   27.8702  -76.7077 O.2       8 UNK        -0.5577 
     35 CA        -74.9552   27.0917  -78.9646 C.3       7 UNK         0.0284 
     36 CB        -73.5828   26.5273  -79.3937 C.3       7 UNK        -0.1958 
     37 N         -75.8085   26.0262  -78.4495 N.am      7 UNK        -0.4454 
     38 C         -76.2735   24.9519  -79.0965 C.2       7 UNK         0.5089 
     39 O         -76.1336   24.7691  -80.3070 O.2       7 UNK        -0.5125 
     40 CA        -77.0151   23.9024  -78.2385 C.3       6 UNK         0.0408 
     41 CB        -76.9344   22.4784  -78.8261 C.3       6 UNK        -0.1791 
     42 N         -76.6081   23.9149  -76.8255 N.am      6 UNK        -0.4762 
     43 C         -75.3794   23.6759  -76.3353 C.2       6 UNK         0.5007 
     44 O         -74.4196   23.3096  -77.0143 O.2       6 UNK        -0.5032 
     45 CA        -75.1900   23.9150  -74.8293 C.3       5 UNK         0.0783 
     46 C46       -75.0447   25.4296  -74.5405 C.3       11 UNK        -0.0857 
     47 S47       -74.7522   25.7817  -72.7756 S.3       11 UNK        -0.2512 
     48 C48       -76.3914   26.3761  -72.2578 C.3       11 UNK         0.0225 
     49 N         -76.2739   23.2961  -74.0646 N.am      5 UNK        -0.4615 
     50 C         -76.3544   21.9978  -73.7616 C.2       4 UNK         0.5053 
     51 O         -75.5320   21.1572  -74.1260 O.2       4 UNK        -0.5105 
     52 CA        -77.5366   21.5615  -72.8777 C.3       4 UNK         0.0263 
     53 CB        -77.4223   22.1562  -71.4586 C.3       4 UNK        -0.1981 
     54 N         -78.8636   21.8127  -73.4578 N.am      4 UNK        -0.4224 
     55 C         -79.4363   22.9868  -73.7562 C.2       3 UNK         0.4895 
     56 O         -78.8967   24.0846  -73.6000 O.2       3 UNK        -0.5091 
     57 CA        -80.8794   22.9187  -74.2721 C.3       3 UNK         0.0250 
     58 CB        -81.8695   23.1467  -73.1186 C.3       3 UNK        -0.1996 
     59 N         -81.0956   23.9328  -75.3012 N.am      3 UNK        -0.4254 
     60 C         -80.8146   23.7565  -76.6001 C.2       2 UNK         0.5004 
     61 O         -80.4128   22.6931  -77.0736 O.2       2 UNK        -0.5226 
     62 CA        -81.0179   24.9596  -77.5402 C.3       2 UNK         0.0269 
     63 CB        -82.3927   24.8793  -78.2231 C.3       2 UNK        -0.1926 
     64 N         -80.8901   26.2548  -76.8689 N.am      2 UNK        -0.4687 
     65 C         -79.7520   26.7329  -76.3485 C.2       1 UNK         0.5165 
     66 O         -78.6627   26.1603  -76.4302 O.2       1 UNK        -0.5079 
     67 H67       -79.7164   25.9711  -71.7092 H         1 UNK         0.0900 
     68 H68       -80.9768   27.1286  -71.2720 H         1 UNK         0.0900 
     69 H69       -79.3431   27.6964  -71.6119 H         1 UNK         0.0900 
     70 H70       -78.8637   28.2879  -73.7407 H         1 UNK         0.2959 
     71 H71       -80.8631   28.4675  -75.7183 H         1 UNK         0.1079 
     72 H72       -77.8563   28.6885  -76.2253 H         1 UNK         0.0837 
     73 H73       -79.1368   29.3321  -77.1999 H         1 UNK         0.0837 
     74 H74       -76.4606   30.3658  -75.5237 H         1 UNK         0.0685 
     75 H75       -76.8069   31.8032  -74.6045 H         1 UNK         0.0685 
     76 H76       -76.7068   28.0642  -74.3902 H         1 UNK         0.1434 
     77 H77       -76.2556   28.0534  -70.1309 H         1 UNK         0.1329 
     78 H78       -76.8657   31.7534  -72.2053 H         1 UNK         0.1335 
     79 H79       -76.6489   30.0946  -68.8734 H         1 UNK         0.0680 
     80 H80       -77.1566   31.5462  -69.6967 H         1 UNK         0.0680 
     81 H81       -74.3318   29.0882  -69.2873 H         1 UNK         0.1032 
     82 H82       -73.2586   30.0322  -68.3057 H         1 UNK         0.1032 
     83 H83       -71.9402   30.7267  -70.2455 H         1 UNK         0.0461 
     84 H84       -70.1479   27.8546  -69.1784 H         1 UNK         0.3453 
     85 H85       -70.4331   29.5584  -68.9388 H         1 UNK         0.3453 
     86 H86       -74.1476   30.0097  -71.8233 H         1 UNK         0.2984 
     87 H87       -73.9851   29.7059  -74.2234 H         1 UNK         0.0554 
     88 H88       -74.2205   32.0731  -75.0553 H         1 UNK         0.0847 
     89 H89       -72.7178   32.5269  -74.2596 H         1 UNK         0.0847 
     90 H90       -74.1395   32.1162  -73.3172 H         1 UNK         0.0847 
     91 H91       -71.2697   29.8514  -74.8954 H         1 UNK         0.3141 
     92 H92       -74.5204   30.3235  -76.4176 H         1 UNK         0.0743 
     93 H93       -73.3812   32.4322  -77.2236 H         1 UNK         0.0784 
     94 H94       -73.0048   31.6341  -78.7391 H         1 UNK         0.0784 
     95 H95       -74.6840   31.9301  -78.2891 H         1 UNK         0.0784 
     96 H96       -73.7905   29.3683  -79.0995 H         1 UNK         0.3213 
     97 H97       -75.4527   27.5684  -79.8113 H         1 UNK         0.0855 
     98 H98       -73.0865   26.0162  -78.5674 H         1 UNK         0.0814 
     99 H99       -72.9136   27.3170  -79.7369 H         1 UNK         0.0814 
    100 H100      -73.6757   25.8173  -80.2151 H         1 UNK         0.0814 
    101 H101      -76.0240   26.1390  -77.4643 H         1 UNK         0.3105 
    102 H102      -78.0630   24.1965  -78.2503 H         1 UNK         0.0547 
    103 H103      -77.3733   22.4419  -79.8237 H         1 UNK         0.0837 
    104 H104      -75.9045   22.1315  -78.9126 H         1 UNK         0.0837 
    105 H105      -77.4807   21.7654  -78.2086 H         1 UNK         0.0837 
    106 H106      -77.3162   24.2579  -76.1870 H         1 UNK         0.3020 
    107 H107      -74.2534   23.4305  -74.5420 H         1 UNK         0.1245 
    108 H108      -75.9249   25.9741  -74.8849 H         1 UNK         0.0781 
    109 H109      -74.2013   25.8417  -75.0984 H         1 UNK         0.0781 
    110 H110      -76.5956   25.9890  -71.2584 H         1 UNK         0.0836 
    111 H111      -77.1710   25.9621  -72.8975 H         1 UNK         0.0836 
    112 H112      -77.0483   23.8890  -73.7781 H         1 UNK         0.3022 
    113 H113      -77.4627   20.4773  -72.7769 H         1 UNK         0.0747 
    114 H114      -78.1978   21.7622  -70.8019 H         1 UNK         0.0793 
    115 H115      -76.4601   21.9068  -71.0091 H         1 UNK         0.0793 
    116 H116      -77.5059   23.2434  -71.4572 H         1 UNK         0.0793 
    117 H117      -79.3982   20.9765  -73.6501 H         1 UNK         0.3047 
    118 H118      -81.0672   21.9295  -74.6956 H         1 UNK         0.0822 
    119 H119      -82.9012   23.1184  -73.4694 H         1 UNK         0.0807 
    120 H120      -81.7082   24.1089  -72.6309 H         1 UNK         0.0807 
    121 H121      -81.7647   22.3746  -72.3553 H         1 UNK         0.0807 
    122 H122      -81.3396   24.8613  -74.9709 H         1 UNK         0.2946 
    123 H123      -80.2517   24.9045  -78.3153 H         1 UNK         0.1144 
    124 H124      -82.5219   25.6790  -78.9527 H         1 UNK         0.0793 
    125 H125      -83.2074   24.9466  -77.5008 H         1 UNK         0.0793 
    126 H126      -82.5081   23.9348  -78.7570 H         1 UNK         0.0793 
    127 H127      -81.7454   26.7729  -76.7247 H         1 UNK         0.2896 
@<TRIPOS>BOND
     1    1    2 1    
     2    1   67 1    
     3    1   68 1    
     4    1   69 1    
     5    2    3 2    
     6    2    4 am   BACKBONE|DICT|INTERRES
     7    4    5 1    
     8    4   70 1    
     9    5    6 1    
    10    5   65 1    
    11    5   71 1    
    12    6    7 1    
    13    6   72 1    
    14    6   73 1    
    15    7    8 1    
    16    8    9 1    
    17    8   74 1    
    18    8   75 1    
    19    9   10 ar   
    20    9   14 ar   
    21   10   11 ar   
    22   10   76 1    
    23   11   12 ar   
    24   11   48 1    
    25   12   13 ar   
    26   12   77 1    
    27   13   14 ar   
    28   13   15 1    
    29   14   78 1    
    30   15   16 1    
    31   15   79 1    
    32   15   80 1    
    33   16   17 1    
    34   17   18 1    
    35   17   81 1    
    36   17   82 1    
    37   18   19 1    
    38   18   22 1    
    39   18   83 1    
    40   19   20 am   BACKBONE|DICT|INTERRES
    41   19   21 2    
    42   20   84 1    
    43   20   85 1    
    44   22   23 am   BACKBONE|DICT|INTERRES
    45   22   86 1    
    46   23   24 2    
    47   23   25 1    
    48   25   26 1    
    49   25   27 1    
    50   25   87 1    
    51   26   88 1    
    52   26   89 1    
    53   26   90 1    
    54   27   28 am   BACKBONE|DICT|INTERRES
    55   27   91 1    
    56   28   29 2    
    57   28   30 1    
    58   30   31 1    
    59   30   32 1    
    60   30   92 1    
    61   31   93 1    
    62   31   94 1    
    63   31   95 1    
    64   32   33 am   BACKBONE|DICT|INTERRES
    65   32   96 1    
    66   33   34 2    
    67   33   35 1    
    68   35   36 1    
    69   35   37 1    
    70   35   97 1    
    71   36   98 1    
    72   36   99 1    
    73   36  100 1    
    74   37   38 am   BACKBONE|DICT|INTERRES
    75   37  101 1    
    76   38   39 2    
    77   38   40 1    
    78   40   41 1    
    79   40   42 1    
    80   40  102 1    
    81   41  103 1    
    82   41  104 1    
    83   41  105 1    
    84   42   43 am   BACKBONE|DICT|INTERRES
    85   42  106 1    
    86   43   44 2    
    87   43   45 1    
    88   45   46 1    
    89   45   49 1    
    90   45  107 1    
    91   46   47 1    
    92   46  108 1    
    93   46  109 1    
    94   47   48 1    
    95   48  110 1    
    96   48  111 1    
    97   49   50 am   BACKBONE|DICT|INTERRES
    98   49  112 1    
    99   50   51 2    
   100   50   52 1    
   101   52   53 1    
   102   52   54 1    
   103   52  113 1    
   104   53  114 1    
   105   53  115 1    
   106   53  116 1    
   107   54   55 am   BACKBONE|DICT|INTERRES
   108   54  117 1    
   109   55   56 2    
   110   55   57 1    
   111   57   58 1    
   112   57   59 1    
   113   57  118 1    
   114   58  119 1    
   115   58  120 1    
   116   58  121 1    
   117   59   60 am   BACKBONE|DICT|INTERRES
   118   59  122 1    
   119   60   61 2    
   120   60   62 1    
   121   62   63 1    
   122   62   64 1    
   123   62  123 1    
   124   63  124 1    
   125   63  125 1    
   126   63  126 1    
   127   64   65 am   BACKBONE|DICT|INTERRES
   128   64  127 1    
   129   65   66 2    
@<TRIPOS>SUBSTRUCTURE
     1 UNK         1 GROUP             0       ****    0 ROOT    
