@<TRIPOS>MOLECULE
3R135
127   129    1
SMALL
USER_CHARGES


@<TRIPOS>ATOM
      1 CA        -84.9593   26.2289  -71.1699 C.3       0 UNK        -0.1998 
      2 C         -83.5651   25.6346  -71.0344 C.2       0 UNK         0.4909 
      3 O         -83.3111   24.8896  -70.0869 O.2       0 UNK        -0.5240 
      4 N         -82.6671   25.9641  -71.9734 N.am      1 UNK        -0.4739 
      5 CA        -81.2783   25.4903  -72.0590 C.3       1 UNK         0.0864 
      6 C6        -80.3738   26.0203  -70.9048 C.3       11 UNK        -0.0881 
      7 S7        -80.0869   27.8126  -71.0687 S.3       11 UNK        -0.2682 
      8 C8        -78.5442   27.7584  -72.0347 C.3       11 UNK         0.0289 
      9 C9        -78.2017   29.0878  -72.6870 C.ar      11 UNK        -0.0687 
     10 C10       -79.0820   29.6705  -73.6041 C.ar      11 UNK        -0.0823 
     11 C11       -78.7067   30.8108  -74.3220 C.ar      11 UNK        -0.0830 
     12 C12       -77.4628   31.4009  -74.0760 C.ar      11 UNK        -0.1021 
     13 C13       -76.5835   30.8360  -73.1479 C.ar      11 UNK        -0.0753 
     14 C14       -76.9579   29.6815  -72.4553 C.ar      11 UNK        -0.0933 
     15 C15       -75.2053   31.4371  -72.9315 C.3       11 UNK         0.0166 
     16 S16       -74.0361   30.8013  -74.1701 S.3       11 UNK        -0.2615 
     17 C17       -72.4419   31.3665  -73.4825 C.3       11 UNK        -0.0865 
     18 CA        -71.5819   30.2226  -72.8791 C.3       10 UNK         0.0862 
     19 C         -72.1181   29.7217  -71.5036 C.2       10 UNK         0.5551 
     20 N         -72.3148   28.4263  -71.2849 N.am      10 UNK        -0.7319 
     21 O         -72.3452   30.5293  -70.6060 O.2       10 UNK        -0.5018 
     22 N         -71.3356   29.1613  -73.8665 N.am      10 UNK        -0.4509 
     23 C         -70.2552   28.3729  -73.8998 C.2       10 UNK         0.4899 
     24 O         -69.2859   28.5071  -73.1510 O.2       10 UNK        -0.4839 
     25 CA        -70.2794   27.2383  -74.9437 C.3       9 UNK         0.0222 
     26 CB        -69.1659   26.1929  -74.7212 C.3       9 UNK        -0.1966 
     27 N         -71.5897   26.5814  -75.0527 N.am      9 UNK        -0.4218 
     28 C         -72.2716   25.9598  -74.0739 C.2       9 UNK         0.5020 
     29 O         -71.8757   25.8937  -72.9093 O.2       9 UNK        -0.5274 
     30 CA        -73.6371   25.3319  -74.4202 C.3       8 UNK         0.0270 
     31 CB        -74.7475   25.9539  -73.5498 C.3       8 UNK        -0.1976 
     32 N         -73.9857   25.4779  -75.8369 N.am      8 UNK        -0.4313 
     33 C         -73.5635   24.6631  -76.8171 C.2       8 UNK         0.5041 
     34 O         -72.9155   23.6371  -76.6099 O.2       8 UNK        -0.5577 
     35 CA        -73.8797   25.0556  -78.2765 C.3       7 UNK         0.0284 
     36 CB        -75.0307   24.2028  -78.8305 C.3       7 UNK        -0.1958 
     37 N         -74.1983   26.4745  -78.4620 N.am      7 UNK        -0.4454 
     38 C         -73.3418   27.4850  -78.2484 C.2       7 UNK         0.5089 
     39 O         -72.1620   27.3222  -77.9364 O.2       7 UNK        -0.5125 
     40 CA        -73.9129   28.9158  -78.3092 C.3       6 UNK         0.0408 
     41 CB        -73.7042   29.5175  -79.7069 C.3       6 UNK        -0.1791 
     42 N         -75.3322   29.0115  -77.9438 N.am      6 UNK        -0.4762 
     43 C         -75.8654   28.5653  -76.7958 C.2       6 UNK         0.5007 
     44 O         -75.2041   28.0294  -75.9093 O.2       6 UNK        -0.5032 
     45 CA        -77.3890   28.6663  -76.6186 C.3       5 UNK         0.0783 
     46 C46       -78.0204   29.9071  -77.3105 C.3       11 UNK        -0.0857 
     47 S47       -79.7601   30.1618  -76.8096 S.3       11 UNK        -0.2512 
     48 C48       -79.6063   31.3473  -75.4266 C.3       11 UNK         0.0225 
     49 N         -78.0724   27.4061  -76.9377 N.am      5 UNK        -0.4615 
     50 C         -77.9968   26.6818  -78.0597 C.2       4 UNK         0.5053 
     51 O         -77.2103   26.9094  -78.9814 O.2       4 UNK        -0.5105 
     52 CA        -78.9730   25.4938  -78.1592 C.3       4 UNK         0.0263 
     53 CB        -79.1727   25.0328  -79.6152 C.3       4 UNK        -0.1981 
     54 N         -78.5560   24.3413  -77.3576 N.am      4 UNK        -0.4224 
     55 C         -78.5951   24.2545  -76.0225 C.2       3 UNK         0.4895 
     56 O         -78.9515   25.1728  -75.2762 O.2       3 UNK        -0.5091 
     57 CA        -78.1751   22.9035  -75.4276 C.3       3 UNK         0.0250 
     58 CB        -76.6448   22.7480  -75.3949 C.3       3 UNK        -0.1996 
     59 N         -78.7049   22.8131  -74.0721 N.am      3 UNK        -0.4254 
     60 C         -79.2115   21.7198  -73.4892 C.2       2 UNK         0.5004 
     61 O         -79.2064   20.6024  -74.0073 O.2       2 UNK        -0.5226 
     62 CA        -79.8353   21.8984  -72.0901 C.3       2 UNK         0.0269 
     63 CB        -78.8864   21.3604  -71.0063 C.3       2 UNK        -0.1926 
     64 N         -80.1661   23.2954  -71.7844 N.am      2 UNK        -0.4687 
     65 C         -81.2056   23.9636  -72.3063 C.2       1 UNK         0.5165 
     66 O         -82.0552   23.4255  -73.0211 O.2       1 UNK        -0.5079 
     67 H67       -85.6983   25.4335  -71.2636 H         1 UNK         0.0900 
     68 H68       -85.2028   26.8186  -70.2865 H         1 UNK         0.0900 
     69 H69       -85.0448   26.8757  -72.0429 H         1 UNK         0.0900 
     70 H70       -82.9574   26.5632  -72.7334 H         1 UNK         0.2959 
     71 H71       -80.8910   25.9088  -72.9900 H         1 UNK         0.1079 
     72 H72       -79.3941   25.5424  -70.8851 H         1 UNK         0.0837 
     73 H73       -80.8204   25.8195  -69.9300 H         1 UNK         0.0837 
     74 H74       -78.6325   27.0108  -72.8248 H         1 UNK         0.0685 
     75 H75       -77.7345   27.4237  -71.3840 H         1 UNK         0.0685 
     76 H76       -80.0320   29.1961  -73.8104 H         1 UNK         0.1434 
     77 H77       -77.1567   32.2736  -74.6369 H         1 UNK         0.1329 
     78 H78       -76.2612   29.2242  -71.7658 H         1 UNK         0.1335 
     79 H79       -74.8465   31.1991  -71.9289 H         1 UNK         0.0680 
     80 H80       -75.2516   32.5252  -72.9971 H         1 UNK         0.0680 
     81 H81       -72.6061   32.1603  -72.7512 H         1 UNK         0.1032 
     82 H82       -71.8865   31.8390  -74.2940 H         1 UNK         0.1032 
     83 H83       -70.6146   30.6708  -72.6443 H         1 UNK         0.0461 
     84 H84       -72.6536   28.1303  -70.3839 H         1 UNK         0.3453 
     85 H85       -72.0974   27.7320  -71.9898 H         1 UNK         0.3453 
     86 H86       -72.1015   28.9713  -74.4971 H         1 UNK         0.2984 
     87 H87       -70.0970   27.7119  -75.9094 H         1 UNK         0.0554 
     88 H88       -69.1902   25.4184  -75.4877 H         1 UNK         0.0847 
     89 H89       -69.2560   25.7061  -73.7495 H         1 UNK         0.0847 
     90 H90       -68.1794   26.6563  -74.7622 H         1 UNK         0.0847 
     91 H91       -72.0038   26.6140  -75.9783 H         1 UNK         0.3141 
     92 H92       -73.5794   24.2680  -74.1812 H         1 UNK         0.0743 
     93 H93       -74.6292   25.6604  -72.5062 H         1 UNK         0.0784 
     94 H94       -75.7414   25.6381  -73.8653 H         1 UNK         0.0784 
     95 H95       -74.7225   27.0441  -73.5766 H         1 UNK         0.0784 
     96 H96       -74.4923   26.3299  -76.0727 H         1 UNK         0.3213 
     97 H97       -72.9852   24.8406  -78.8652 H         1 UNK         0.0855 
     98 H98       -75.9571   24.3876  -78.2902 H         1 UNK         0.0814 
     99 H99       -74.8071   23.1385  -78.7450 H         1 UNK         0.0814 
    100 H100      -75.2105   24.4129  -79.8850 H         1 UNK         0.0814 
    101 H101      -75.1597   26.7033  -78.6983 H         1 UNK         0.3105 
    102 H102      -73.3541   29.5181  -77.5898 H         1 UNK         0.0547 
    103 H103      -72.6526   29.4795  -79.9949 H         1 UNK         0.0837 
    104 H104      -74.2700   28.9776  -80.4673 H         1 UNK         0.0837 
    105 H105      -74.0084   30.5638  -79.7394 H         1 UNK         0.0837 
    106 H106      -75.9554   29.3765  -78.6496 H         1 UNK         0.3020 
    107 H107      -77.5085   28.7833  -75.5448 H         1 UNK         0.1245 
    108 H108      -77.4550   30.8127  -77.0814 H         1 UNK         0.0781 
    109 H109      -77.9984   29.7962  -78.3958 H         1 UNK         0.0781 
    110 H110      -80.5974   31.5499  -75.0182 H         1 UNK         0.0836 
    111 H111      -79.2315   32.2978  -75.8098 H         1 UNK         0.0836 
    112 H112      -78.6698   27.0416  -76.2042 H         1 UNK         0.3022 
    113 H113      -79.9417   25.8358  -77.7878 H         1 UNK         0.0747 
    114 H114      -79.9391   24.2607  -79.6864 H         1 UNK         0.0793 
    115 H115      -78.2527   24.6341  -80.0450 H         1 UNK         0.0793 
    116 H116      -79.4929   25.8630  -80.2464 H         1 UNK         0.0793 
    117 H117      -78.2380   23.5371  -77.8789 H         1 UNK         0.3047 
    118 H118      -78.6087   22.1123  -76.0435 H         1 UNK         0.0822 
    119 H119      -76.3551   21.7917  -74.9590 H         1 UNK         0.0807 
    120 H120      -76.1711   23.5351  -74.8098 H         1 UNK         0.0807 
    121 H121      -76.2202   22.7835  -76.3979 H         1 UNK         0.0807 
    122 H122      -78.8075   23.7054  -73.6083 H         1 UNK         0.2946 
    123 H123      -80.7547   21.3083  -72.0672 H         1 UNK         0.1144 
    124 H124      -78.6446   20.3116  -71.1853 H         1 UNK         0.0793 
    125 H125      -79.3390   21.4213  -70.0163 H         1 UNK         0.0793 
    126 H126      -77.9454   21.9115  -70.9817 H         1 UNK         0.0793 
    127 H127      -79.5177   23.7886  -71.1881 H         1 UNK         0.2896 
@<TRIPOS>BOND
     1    1    2 1    
     2    1   67 1    
     3    1   68 1    
     4    1   69 1    
     5    2    3 2    
     6    2    4 am   BACKBONE|DICT|INTERRES
     7    4    5 1    
     8    4   70 1    
     9    5    6 1    
    10    5   65 1    
    11    5   71 1    
    12    6    7 1    
    13    6   72 1    
    14    6   73 1    
    15    7    8 1    
    16    8    9 1    
    17    8   74 1    
    18    8   75 1    
    19    9   10 ar   
    20    9   14 ar   
    21   10   11 ar   
    22   10   76 1    
    23   11   12 ar   
    24   11   48 1    
    25   12   13 ar   
    26   12   77 1    
    27   13   14 ar   
    28   13   15 1    
    29   14   78 1    
    30   15   16 1    
    31   15   79 1    
    32   15   80 1    
    33   16   17 1    
    34   17   18 1    
    35   17   81 1    
    36   17   82 1    
    37   18   19 1    
    38   18   22 1    
    39   18   83 1    
    40   19   20 am   BACKBONE|DICT|INTERRES
    41   19   21 2    
    42   20   84 1    
    43   20   85 1    
    44   22   23 am   BACKBONE|DICT|INTERRES
    45   22   86 1    
    46   23   24 2    
    47   23   25 1    
    48   25   26 1    
    49   25   27 1    
    50   25   87 1    
    51   26   88 1    
    52   26   89 1    
    53   26   90 1    
    54   27   28 am   BACKBONE|DICT|INTERRES
    55   27   91 1    
    56   28   29 2    
    57   28   30 1    
    58   30   31 1    
    59   30   32 1    
    60   30   92 1    
    61   31   93 1    
    62   31   94 1    
    63   31   95 1    
    64   32   33 am   BACKBONE|DICT|INTERRES
    65   32   96 1    
    66   33   34 2    
    67   33   35 1    
    68   35   36 1    
    69   35   37 1    
    70   35   97 1    
    71   36   98 1    
    72   36   99 1    
    73   36  100 1    
    74   37   38 am   BACKBONE|DICT|INTERRES
    75   37  101 1    
    76   38   39 2    
    77   38   40 1    
    78   40   41 1    
    79   40   42 1    
    80   40  102 1    
    81   41  103 1    
    82   41  104 1    
    83   41  105 1    
    84   42   43 am   BACKBONE|DICT|INTERRES
    85   42  106 1    
    86   43   44 2    
    87   43   45 1    
    88   45   46 1    
    89   45   49 1    
    90   45  107 1    
    91   46   47 1    
    92   46  108 1    
    93   46  109 1    
    94   47   48 1    
    95   48  110 1    
    96   48  111 1    
    97   49   50 am   BACKBONE|DICT|INTERRES
    98   49  112 1    
    99   50   51 2    
   100   50   52 1    
   101   52   53 1    
   102   52   54 1    
   103   52  113 1    
   104   53  114 1    
   105   53  115 1    
   106   53  116 1    
   107   54   55 am   BACKBONE|DICT|INTERRES
   108   54  117 1    
   109   55   56 2    
   110   55   57 1    
   111   57   58 1    
   112   57   59 1    
   113   57  118 1    
   114   58  119 1    
   115   58  120 1    
   116   58  121 1    
   117   59   60 am   BACKBONE|DICT|INTERRES
   118   59  122 1    
   119   60   61 2    
   120   60   62 1    
   121   62   63 1    
   122   62   64 1    
   123   62  123 1    
   124   63  124 1    
   125   63  125 1    
   126   63  126 1    
   127   64   65 am   BACKBONE|DICT|INTERRES
   128   64  127 1    
   129   65   66 2    
@<TRIPOS>SUBSTRUCTURE
     1 UNK         1 GROUP             0       ****    0 ROOT    
