@<TRIPOS>MOLECULE
3R135
127   129    1
SMALL
USER_CHARGES


@<TRIPOS>ATOM
      1 CA        -84.3002   27.1531  -71.0105 C.3       0 UNK        -0.1998 
      2 C         -83.9025   27.4635  -72.4457 C.2       0 UNK         0.4909 
      3 O         -84.7193   27.3106  -73.3543 O.2       0 UNK        -0.5240 
      4 N         -82.6541   27.9024  -72.6531 N.am      1 UNK        -0.4739 
      5 CA        -82.0848   28.2312  -73.9671 C.3       1 UNK         0.0864 
      6 C6        -80.7696   29.0389  -73.8438 C.3       11 UNK        -0.0881 
      7 S7        -81.0144   30.6860  -73.0874 S.3       11 UNK        -0.2682 
      8 C8        -80.7287   30.4019  -71.3065 C.3       11 UNK         0.0289 
      9 C9        -79.3193   29.9113  -71.0124 C.ar      11 UNK        -0.0687 
     10 C10       -79.0841   28.5575  -70.7588 C.ar      11 UNK        -0.0823 
     11 C11       -77.7849   28.0955  -70.5403 C.ar      11 UNK        -0.0830 
     12 C12       -76.7266   29.0061  -70.5146 C.ar      11 UNK        -0.1021 
     13 C13       -76.9422   30.3685  -70.7642 C.ar      11 UNK        -0.0753 
     14 C14       -78.2472   30.8087  -71.0094 C.ar      11 UNK        -0.0933 
     15 C15       -75.8108   31.4009  -70.8000 C.3       11 UNK         0.0166 
     16 S16       -74.1130   30.7408  -70.6443 S.3       11 UNK        -0.2615 
     17 C17       -73.9273   29.7832  -72.1920 C.3       11 UNK        -0.0865 
     18 CA        -72.6484   30.1711  -72.9736 C.3       10 UNK         0.0862 
     19 C         -71.3597   29.6678  -72.2642 C.2       10 UNK         0.5551 
     20 N         -70.5383   30.5680  -71.7414 N.am      10 UNK        -0.7319 
     21 O         -71.1231   28.4661  -72.1584 O.2       10 UNK        -0.5018 
     22 N         -72.7130   29.6758  -74.3533 N.am      10 UNK        -0.4509 
     23 C         -71.9022   30.0850  -75.3378 C.2       10 UNK         0.4899 
     24 O         -71.1172   31.0296  -75.2349 O.2       10 UNK        -0.4839 
     25 CA        -71.9852   29.2855  -76.6495 C.3       9 UNK         0.0222 
     26 CB        -70.9087   29.6827  -77.6814 C.3       9 UNK        -0.1966 
     27 N         -71.9744   27.8404  -76.4035 N.am      9 UNK        -0.4218 
     28 C         -71.0105   27.1031  -75.8289 C.2       9 UNK         0.5020 
     29 O         -69.9187   27.5455  -75.4697 O.2       9 UNK        -0.5274 
     30 CA        -71.3170   25.6082  -75.6118 C.3       8 UNK         0.0270 
     31 CB        -71.7497   25.3611  -74.1572 C.3       8 UNK        -0.1976 
     32 N         -72.3474   25.0890  -76.5170 N.am      8 UNK        -0.4313 
     33 C         -72.1871   24.9365  -77.8397 C.2       8 UNK         0.5041 
     34 O         -71.1171   25.1087  -78.4250 O.2       8 UNK        -0.5577 
     35 CA        -73.4384   24.5693  -78.6535 C.3       7 UNK         0.0284 
     36 CB        -73.6740   23.0508  -78.6278 C.3       7 UNK        -0.1958 
     37 N         -74.6427   25.2718  -78.1969 N.am      7 UNK        -0.4454 
     38 C         -74.8291   26.5987  -78.2646 C.2       7 UNK         0.5089 
     39 O         -74.0168   27.3788  -78.7592 O.2       7 UNK        -0.5125 
     40 CA        -76.1163   27.1623  -77.6390 C.3       6 UNK         0.0408 
     41 CB        -77.3090   27.0018  -78.5938 C.3       6 UNK        -0.1791 
     42 N         -76.4308   26.5484  -76.3490 N.am      6 UNK        -0.4762 
     43 C         -75.7002   26.6841  -75.2313 C.2       6 UNK         0.5007 
     44 O         -74.6971   27.3954  -75.1401 O.2       6 UNK        -0.5032 
     45 CA        -76.1635   25.8522  -74.0201 C.3       5 UNK         0.0783 
     46 C46       -77.2936   26.5981  -73.2705 C.3       11 UNK        -0.0857 
     47 S47       -78.0134   25.6560  -71.8755 S.3       11 UNK        -0.2512 
     48 C48       -77.5049   26.6051  -70.3994 C.3       11 UNK         0.0225 
     49 N         -76.5560   24.5015  -74.4328 N.am      5 UNK        -0.4615 
     50 C         -75.7192   23.5746  -74.9175 C.2       4 UNK         0.5053 
     51 O         -74.5092   23.7510  -75.0575 O.2       4 UNK        -0.5105 
     52 CA        -76.3473   22.2421  -75.3602 C.3       4 UNK         0.0263 
     53 CB        -76.5514   21.3144  -74.1521 C.3       4 UNK        -0.1981 
     54 N         -77.6210   22.4227  -76.0623 N.am      4 UNK        -0.4224 
     55 C         -77.7532   23.0480  -77.2415 C.2       3 UNK         0.4895 
     56 O         -76.8066   23.4855  -77.8916 O.2       3 UNK        -0.5091 
     57 CA        -79.1816   23.2682  -77.7669 C.3       3 UNK         0.0250 
     58 CB        -79.6272   22.0764  -78.6287 C.3       3 UNK        -0.1996 
     59 N         -80.1713   23.5109  -76.7122 N.am      3 UNK        -0.4254 
     60 C         -80.1247   24.5208  -75.8318 C.2       2 UNK         0.5004 
     61 O         -79.2135   25.3517  -75.7881 O.2       2 UNK        -0.5226 
     62 CA        -81.2581   24.5505  -74.7920 C.3       2 UNK         0.0269 
     63 CB        -80.9798   23.5322  -73.6731 C.3       2 UNK        -0.1926 
     64 N         -81.4580   25.8673  -74.1839 N.am      2 UNK        -0.4687 
     65 C         -81.8740   26.9678  -74.8285 C.2       1 UNK         0.5165 
     66 O         -82.1293   27.0043  -76.0335 O.2       1 UNK        -0.5079 
     67 H67       -83.4879   27.3456  -70.3099 H         1 UNK         0.0900 
     68 H68       -85.1526   27.7653  -70.7170 H         1 UNK         0.0900 
     69 H69       -84.5856   26.1054  -70.9191 H         1 UNK         0.0900 
     70 H70       -82.0364   28.0207  -71.8656 H         1 UNK         0.2959 
     71 H71       -82.8120   28.8518  -74.4963 H         1 UNK         0.1079 
     72 H72       -80.3460   29.2126  -74.8352 H         1 UNK         0.0837 
     73 H73       -80.0110   28.4753  -73.3012 H         1 UNK         0.0837 
     74 H74       -80.8985   31.3400  -70.7758 H         1 UNK         0.0685 
     75 H75       -81.4710   29.7047  -70.9181 H         1 UNK         0.0685 
     76 H76       -79.9019   27.8509  -70.7758 H         1 UNK         0.1434 
     77 H77       -75.7319   28.6316  -70.3270 H         1 UNK         0.1329 
     78 H78       -78.4307   31.8552  -71.2130 H         1 UNK         0.1335 
     79 H79       -75.9701   32.1112  -69.9875 H         1 UNK         0.0680 
     80 H80       -75.8751   31.9739  -71.7264 H         1 UNK         0.0680 
     81 H81       -73.9344   28.7160  -71.9614 H         1 UNK         0.1032 
     82 H82       -74.8057   29.9562  -72.8164 H         1 UNK         0.1032 
     83 H83       -72.6152   31.2615  -73.0306 H         1 UNK         0.0461 
     84 H84       -69.7054   30.2565  -71.2671 H         1 UNK         0.3453 
     85 H85       -70.7339   31.5539  -71.8186 H         1 UNK         0.3453 
     86 H86       -73.3133   28.8762  -74.5238 H         1 UNK         0.2984 
     87 H87       -72.9592   29.5116  -77.0858 H         1 UNK         0.0554 
     88 H88       -70.9963   30.7360  -77.9501 H         1 UNK         0.0847 
     89 H89       -71.0106   29.1043  -78.5997 H         1 UNK         0.0847 
     90 H90       -69.8997   29.5288  -77.2976 H         1 UNK         0.0847 
     91 H91       -72.8377   27.3655  -76.6334 H         1 UNK         0.3141 
     92 H92       -70.3945   25.0530  -75.7944 H         1 UNK         0.0743 
     93 H93       -72.6774   25.8823  -73.9187 H         1 UNK         0.0784 
     94 H94       -71.9016   24.2993  -73.9621 H         1 UNK         0.0784 
     95 H95       -70.9906   25.7153  -73.4581 H         1 UNK         0.0784 
     96 H96       -73.2379   24.8319  -76.0980 H         1 UNK         0.3213 
     97 H97       -73.2562   24.8667  -79.6885 H         1 UNK         0.0855 
     98 H98       -73.8985   22.6939  -77.6224 H         1 UNK         0.0814 
     99 H99       -72.7918   22.5124  -78.9767 H         1 UNK         0.0814 
    100 H100      -74.5031   22.7675  -79.2764 H         1 UNK         0.0814 
    101 H101      -75.4031   24.6898  -77.8502 H         1 UNK         0.3105 
    102 H102      -75.9636   28.2300  -77.4672 H         1 UNK         0.0547 
    103 H103      -77.1214   27.5132  -79.5388 H         1 UNK         0.0837 
    104 H104      -77.5060   25.9552  -78.8250 H         1 UNK         0.0837 
    105 H105      -78.2185   27.4272  -78.1690 H         1 UNK         0.0837 
    106 H106      -77.2649   25.9710  -76.3041 H         1 UNK         0.3020 
    107 H107      -75.3103   25.7565  -73.3447 H         1 UNK         0.1245 
    108 H108      -78.1156   26.8341  -73.9480 H         1 UNK         0.0781 
    109 H109      -76.9194   27.5619  -72.9267 H         1 UNK         0.0781 
    110 H110      -76.4446   26.4224  -70.2184 H         1 UNK         0.0836 
    111 H111      -78.0358   26.2199  -69.5279 H         1 UNK         0.0836 
    112 H112      -77.5450   24.3018  -74.3940 H         1 UNK         0.3022 
    113 H113      -75.6504   21.7591  -76.0483 H         1 UNK         0.0747 
    114 H114      -76.9209   20.3363  -74.4608 H         1 UNK         0.0793 
    115 H115      -75.6108   21.1514  -73.6238 H         1 UNK         0.0793 
    116 H116      -77.2599   21.7311  -73.4347 H         1 UNK         0.0793 
    117 H117      -78.4534   22.0877  -75.6005 H         1 UNK         0.3047 
    118 H118      -79.1599   24.1568  -78.4010 H         1 UNK         0.0822 
    119 H119      -80.5959   22.2618  -79.0933 H         1 UNK         0.0807 
    120 H120      -79.7041   21.1589  -78.0439 H         1 UNK         0.0807 
    121 H121      -78.9151   21.8904  -79.4343 H         1 UNK         0.0807 
    122 H122      -80.9469   22.8649  -76.6695 H         1 UNK         0.2946 
    123 H123      -82.1880   24.2781  -75.2964 H         1 UNK         0.1144 
    124 H124      -81.7905   23.5118  -72.9444 H         1 UNK         0.0793 
    125 H125      -80.0566   23.7609  -73.1396 H         1 UNK         0.0793 
    126 H126      -80.8838   22.5211  -74.0707 H         1 UNK         0.0793 
    127 H127      -81.2624   25.9407  -73.1971 H         1 UNK         0.2896 
@<TRIPOS>BOND
     1    1    2 1    
     2    1   67 1    
     3    1   68 1    
     4    1   69 1    
     5    2    3 2    
     6    2    4 am   BACKBONE|DICT|INTERRES
     7    4    5 1    
     8    4   70 1    
     9    5    6 1    
    10    5   65 1    
    11    5   71 1    
    12    6    7 1    
    13    6   72 1    
    14    6   73 1    
    15    7    8 1    
    16    8    9 1    
    17    8   74 1    
    18    8   75 1    
    19    9   10 ar   
    20    9   14 ar   
    21   10   11 ar   
    22   10   76 1    
    23   11   12 ar   
    24   11   48 1    
    25   12   13 ar   
    26   12   77 1    
    27   13   14 ar   
    28   13   15 1    
    29   14   78 1    
    30   15   16 1    
    31   15   79 1    
    32   15   80 1    
    33   16   17 1    
    34   17   18 1    
    35   17   81 1    
    36   17   82 1    
    37   18   19 1    
    38   18   22 1    
    39   18   83 1    
    40   19   20 am   BACKBONE|DICT|INTERRES
    41   19   21 2    
    42   20   84 1    
    43   20   85 1    
    44   22   23 am   BACKBONE|DICT|INTERRES
    45   22   86 1    
    46   23   24 2    
    47   23   25 1    
    48   25   26 1    
    49   25   27 1    
    50   25   87 1    
    51   26   88 1    
    52   26   89 1    
    53   26   90 1    
    54   27   28 am   BACKBONE|DICT|INTERRES
    55   27   91 1    
    56   28   29 2    
    57   28   30 1    
    58   30   31 1    
    59   30   32 1    
    60   30   92 1    
    61   31   93 1    
    62   31   94 1    
    63   31   95 1    
    64   32   33 am   BACKBONE|DICT|INTERRES
    65   32   96 1    
    66   33   34 2    
    67   33   35 1    
    68   35   36 1    
    69   35   37 1    
    70   35   97 1    
    71   36   98 1    
    72   36   99 1    
    73   36  100 1    
    74   37   38 am   BACKBONE|DICT|INTERRES
    75   37  101 1    
    76   38   39 2    
    77   38   40 1    
    78   40   41 1    
    79   40   42 1    
    80   40  102 1    
    81   41  103 1    
    82   41  104 1    
    83   41  105 1    
    84   42   43 am   BACKBONE|DICT|INTERRES
    85   42  106 1    
    86   43   44 2    
    87   43   45 1    
    88   45   46 1    
    89   45   49 1    
    90   45  107 1    
    91   46   47 1    
    92   46  108 1    
    93   46  109 1    
    94   47   48 1    
    95   48  110 1    
    96   48  111 1    
    97   49   50 am   BACKBONE|DICT|INTERRES
    98   49  112 1    
    99   50   51 2    
   100   50   52 1    
   101   52   53 1    
   102   52   54 1    
   103   52  113 1    
   104   53  114 1    
   105   53  115 1    
   106   53  116 1    
   107   54   55 am   BACKBONE|DICT|INTERRES
   108   54  117 1    
   109   55   56 2    
   110   55   57 1    
   111   57   58 1    
   112   57   59 1    
   113   57  118 1    
   114   58  119 1    
   115   58  120 1    
   116   58  121 1    
   117   59   60 am   BACKBONE|DICT|INTERRES
   118   59  122 1    
   119   60   61 2    
   120   60   62 1    
   121   62   63 1    
   122   62   64 1    
   123   62  123 1    
   124   63  124 1    
   125   63  125 1    
   126   63  126 1    
   127   64   65 am   BACKBONE|DICT|INTERRES
   128   64  127 1    
   129   65   66 2    
@<TRIPOS>SUBSTRUCTURE
     1 UNK         1 GROUP             0       ****    0 ROOT    
