@<TRIPOS>MOLECULE
3R135
127   129    1
SMALL
USER_CHARGES


@<TRIPOS>ATOM
      1 CA        -80.1350   23.6156  -71.1040 C.3       0 UNK        -0.1998 
      2 C         -81.2465   24.5188  -71.6168 C.2       0 UNK         0.4909 
      3 O         -82.3515   24.0418  -71.8754 O.2       0 UNK        -0.5240 
      4 N         -80.9615   25.8204  -71.7621 N.am      1 UNK        -0.4739 
      5 CA        -81.9056   26.8428  -72.2402 C.3       1 UNK         0.0864 
      6 C6        -81.3842   28.2773  -71.9838 C.3       11 UNK        -0.0881 
      7 S7        -81.1091   28.5880  -70.2078 S.3       11 UNK        -0.2682 
      8 C8        -80.1364   30.1323  -70.2581 C.3       11 UNK         0.0289 
      9 C9        -78.7152   30.0102  -70.8143 C.ar      11 UNK        -0.0687 
     10 C10       -78.0189   28.7954  -70.8572 C.ar      11 UNK        -0.0823 
     11 C11       -76.7122   28.7319  -71.3576 C.ar      11 UNK        -0.0830 
     12 C12       -76.0908   29.9126  -71.7789 C.ar      11 UNK        -0.1021 
     13 C13       -76.7607   31.1428  -71.7303 C.ar      11 UNK        -0.0753 
     14 C14       -78.0743   31.1717  -71.2541 C.ar      11 UNK        -0.0933 
     15 C15       -76.1185   32.4746  -72.1376 C.3       11 UNK         0.0166 
     16 S16       -74.4560   32.3920  -72.8914 S.3       11 UNK        -0.2615 
     17 C17       -74.8698   31.7532  -74.5514 C.3       11 UNK        -0.0865 
     18 CA        -73.6357   31.4116  -75.4416 C.3       10 UNK         0.0862 
     19 C         -72.9411   32.6721  -76.0242 C.2       10 UNK         0.5551 
     20 N         -73.6410   33.4474  -76.8419 N.am      10 UNK        -0.7319 
     21 O         -71.7734   32.9518  -75.7526 O.2       10 UNK        -0.5018 
     22 N         -72.6493   30.5268  -74.8054 N.am      10 UNK        -0.4509 
     23 C         -72.8814   29.3032  -74.3264 C.2       10 UNK         0.4899 
     24 O         -73.9957   28.7903  -74.2563 O.2       10 UNK        -0.4839 
     25 CA        -71.6726   28.5239  -73.8062 C.3       9 UNK         0.0222 
     26 CB        -71.5443   28.6731  -72.2790 C.3       9 UNK        -0.1966 
     27 N         -71.8399   27.1170  -74.1650 N.am      9 UNK        -0.4218 
     28 C         -70.8454   26.2318  -74.3059 C.2       9 UNK         0.5020 
     29 O         -69.6573   26.5024  -74.1229 O.2       9 UNK        -0.5274 
     30 CA        -71.2284   24.8056  -74.7282 C.3       8 UNK         0.0270 
     31 CB        -71.8051   24.0191  -73.5383 C.3       8 UNK        -0.1976 
     32 N         -72.1948   24.8158  -75.8273 N.am      8 UNK        -0.4313 
     33 C         -71.8760   24.7271  -77.1260 C.2       8 UNK         0.5041 
     34 O         -70.7223   24.5923  -77.5370 O.2       8 UNK        -0.5577 
     35 CA        -73.0250   24.7781  -78.1532 C.3       7 UNK         0.0284 
     36 CB        -73.4427   23.3538  -78.5542 C.3       7 UNK        -0.1958 
     37 N         -74.2094   25.5046  -77.6936 N.am      7 UNK        -0.4454 
     38 C         -74.2575   26.8176  -77.4309 C.2       7 UNK         0.5089 
     39 O         -73.3208   27.5932  -77.6226 O.2       7 UNK        -0.5125 
     40 CA        -75.5699   27.3451  -76.8229 C.3       6 UNK         0.0408 
     41 CB        -76.5433   27.7494  -77.9392 C.3       6 UNK        -0.1791 
     42 N         -76.2292   26.4108  -75.8967 N.am      6 UNK        -0.4762 
     43 C         -75.6605   25.8190  -74.8304 C.2       6 UNK         0.5007 
     44 O         -74.4695   25.9093  -74.5366 O.2       6 UNK        -0.5032 
     45 CA        -76.5686   24.9212  -73.9782 C.3       5 UNK         0.0783 
     46 C46       -77.5138   25.7602  -73.0749 C.3       11 UNK        -0.0857 
     47 S47       -76.8906   25.8834  -71.3661 S.3       11 UNK        -0.2512 
     48 C48       -75.9108   27.4282  -71.4067 C.3       11 UNK         0.0225 
     49 N         -77.2857   23.9908  -74.8507 N.am      5 UNK        -0.4615 
     50 C         -76.7515   22.8650  -75.3469 C.2       4 UNK         0.5053 
     51 O         -75.6490   22.4283  -75.0173 O.2       4 UNK        -0.5105 
     52 CA        -77.5698   22.1015  -76.4048 C.3       4 UNK         0.0263 
     53 CB        -78.4367   21.0239  -75.7340 C.3       4 UNK        -0.1981 
     54 N         -78.4236   22.9684  -77.2207 N.am      4 UNK        -0.4224 
     55 C         -77.9813   23.9289  -78.0456 C.2       3 UNK         0.4895 
     56 O         -76.7903   24.1486  -78.2675 O.2       3 UNK        -0.5091 
     57 CA        -79.0500   24.8332  -78.6892 C.3       3 UNK         0.0250 
     58 CB        -79.4892   24.2567  -80.0444 C.3       3 UNK        -0.1996 
     59 N         -80.2345   25.0733  -77.8532 N.am      3 UNK        -0.4254 
     60 C         -80.2304   25.5500  -76.5991 C.2       2 UNK         0.5004 
     61 O         -79.2009   25.8313  -75.9759 O.2       2 UNK        -0.5226 
     62 CA        -81.5987   25.6914  -75.9168 C.3       2 UNK         0.0269 
     63 CB        -82.4197   24.3859  -75.9927 C.3       2 UNK        -0.1926 
     64 N         -81.3986   26.0558  -74.5167 N.am      2 UNK        -0.4687 
     65 C         -82.2923   26.6591  -73.7244 C.2       1 UNK         0.5165 
     66 O         -83.3941   27.0481  -74.1153 O.2       1 UNK        -0.5079 
     67 H67       -79.7218   23.0261  -71.9222 H         1 UNK         0.0900 
     68 H68       -80.5234   22.9300  -70.3512 H         1 UNK         0.0900 
     69 H69       -79.3261   24.1867  -70.6491 H         1 UNK         0.0900 
     70 H70       -80.0505   26.1626  -71.4937 H         1 UNK         0.2959 
     71 H71       -82.8296   26.7181  -71.6707 H         1 UNK         0.1079 
     72 H72       -80.4561   28.4508  -72.5321 H         1 UNK         0.0837 
     73 H73       -82.0995   29.0190  -72.3454 H         1 UNK         0.0837 
     74 H74       -80.6969   30.8691  -70.8359 H         1 UNK         0.0685 
     75 H75       -80.0699   30.5240  -69.2423 H         1 UNK         0.0685 
     76 H76       -78.4908   27.8990  -70.4854 H         1 UNK         0.1434 
     77 H77       -75.0712   29.8627  -72.1318 H         1 UNK         0.1329 
     78 H78       -78.5982   32.1171  -71.2050 H         1 UNK         0.1335 
     79 H79       -76.7841   33.0006  -72.8238 H         1 UNK         0.0680 
     80 H80       -76.0447   33.0989  -71.2461 H         1 UNK         0.0680 
     81 H81       -75.5184   32.4758  -75.0491 H         1 UNK         0.1032 
     82 H82       -75.4889   30.8636  -74.4333 H         1 UNK         0.1032 
     83 H83       -74.0025   30.8595  -76.3094 H         1 UNK         0.0461 
     84 H84       -74.5926   33.2259  -77.0895 H         1 UNK         0.3453 
     85 H85       -73.2028   34.2686  -77.2296 H         1 UNK         0.3453 
     86 H86       -71.7098   30.9045  -74.8043 H         1 UNK         0.2984 
     87 H87       -70.7724   28.9128  -74.2876 H         1 UNK         0.0554 
     88 H88       -70.6674   28.1491  -71.8987 H         1 UNK         0.0847 
     89 H89       -72.4212   28.2782  -71.7636 H         1 UNK         0.0847 
     90 H90       -71.4441   29.7218  -71.9960 H         1 UNK         0.0847 
     91 H91       -72.8036   26.8307  -74.3380 H         1 UNK         0.3141 
     92 H92       -70.3168   24.2957  -75.0473 H         1 UNK         0.0743 
     93 H93       -72.7097   24.4796  -73.1401 H         1 UNK         0.0784 
     94 H94       -72.0504   22.9957  -73.8230 H         1 UNK         0.0784 
     95 H95       -71.0828   23.9649  -72.7227 H         1 UNK         0.0784 
     96 H96       -73.1604   25.0013  -75.5695 H         1 UNK         0.3213 
     97 H97       -72.6461   25.2887  -79.0410 H         1 UNK         0.0855 
     98 H98       -73.8631   22.8054  -77.7098 H         1 UNK         0.0814 
     99 H99       -72.5890   22.7838  -78.9235 H         1 UNK         0.0814 
    100 H100      -74.1901   23.3683  -79.3479 H         1 UNK         0.0814 
    101 H101      -75.0650   24.9672  -77.5861 H         1 UNK         0.3105 
    102 H102      -75.3420   28.2467  -76.2571 H         1 UNK         0.0547 
    103 H103      -76.1532   28.6017  -78.4968 H         1 UNK         0.0837 
    104 H104      -76.6864   26.9416  -78.6554 H         1 UNK         0.0837 
    105 H105      -77.5181   28.0375  -77.5448 H         1 UNK         0.0837 
    106 H106      -77.2207   26.2523  -76.0472 H         1 UNK         0.3020 
    107 H107      -75.9136   24.3247  -73.3377 H         1 UNK         0.1245 
    108 H108      -78.4862   25.2734  -73.0123 H         1 UNK         0.0781 
    109 H109      -77.7168   26.7572  -73.4736 H         1 UNK         0.0781 
    110 H110      -75.2755   27.4165  -72.2934 H         1 UNK         0.0836 
    111 H111      -75.2343   27.4197  -70.5512 H         1 UNK         0.0836 
    112 H112      -78.1610   24.3297  -75.2335 H         1 UNK         0.3022 
    113 H113      -76.8612   21.6081  -77.0737 H         1 UNK         0.0747 
    114 H114      -78.9598   20.4171  -76.4735 H         1 UNK         0.0793 
    115 H115      -77.8238   20.3464  -75.1375 H         1 UNK         0.0793 
    116 H116      -79.1820   21.4605  -75.0677 H         1 UNK         0.0793 
    117 H117      -79.4209   22.8588  -77.1111 H         1 UNK         0.3047 
    118 H118      -78.5926   25.8048  -78.8720 H         1 UNK         0.0822 
    119 H119      -80.1609   24.9376  -80.5678 H         1 UNK         0.0807 
    120 H120      -80.0005   23.2998  -79.9311 H         1 UNK         0.0807 
    121 H121      -78.6291   24.0916  -80.6952 H         1 UNK         0.0807 
    122 H122      -81.1258   24.8687  -78.2820 H         1 UNK         0.2946 
    123 H123      -82.1372   26.4958  -76.4232 H         1 UNK         0.1144 
    124 H124      -81.8862   23.5494  -75.5393 H         1 UNK         0.0793 
    125 H125      -82.6525   24.1116  -77.0219 H         1 UNK         0.0793 
    126 H126      -83.3734   24.4862  -75.4741 H         1 UNK         0.0793 
    127 H127      -80.4827   25.8364  -74.1501 H         1 UNK         0.2896 
@<TRIPOS>BOND
     1    1    2 1    
     2    1   67 1    
     3    1   68 1    
     4    1   69 1    
     5    2    3 2    
     6    2    4 am   BACKBONE|DICT|INTERRES
     7    4    5 1    
     8    4   70 1    
     9    5    6 1    
    10    5   65 1    
    11    5   71 1    
    12    6    7 1    
    13    6   72 1    
    14    6   73 1    
    15    7    8 1    
    16    8    9 1    
    17    8   74 1    
    18    8   75 1    
    19    9   10 ar   
    20    9   14 ar   
    21   10   11 ar   
    22   10   76 1    
    23   11   12 ar   
    24   11   48 1    
    25   12   13 ar   
    26   12   77 1    
    27   13   14 ar   
    28   13   15 1    
    29   14   78 1    
    30   15   16 1    
    31   15   79 1    
    32   15   80 1    
    33   16   17 1    
    34   17   18 1    
    35   17   81 1    
    36   17   82 1    
    37   18   19 1    
    38   18   22 1    
    39   18   83 1    
    40   19   20 am   BACKBONE|DICT|INTERRES
    41   19   21 2    
    42   20   84 1    
    43   20   85 1    
    44   22   23 am   BACKBONE|DICT|INTERRES
    45   22   86 1    
    46   23   24 2    
    47   23   25 1    
    48   25   26 1    
    49   25   27 1    
    50   25   87 1    
    51   26   88 1    
    52   26   89 1    
    53   26   90 1    
    54   27   28 am   BACKBONE|DICT|INTERRES
    55   27   91 1    
    56   28   29 2    
    57   28   30 1    
    58   30   31 1    
    59   30   32 1    
    60   30   92 1    
    61   31   93 1    
    62   31   94 1    
    63   31   95 1    
    64   32   33 am   BACKBONE|DICT|INTERRES
    65   32   96 1    
    66   33   34 2    
    67   33   35 1    
    68   35   36 1    
    69   35   37 1    
    70   35   97 1    
    71   36   98 1    
    72   36   99 1    
    73   36  100 1    
    74   37   38 am   BACKBONE|DICT|INTERRES
    75   37  101 1    
    76   38   39 2    
    77   38   40 1    
    78   40   41 1    
    79   40   42 1    
    80   40  102 1    
    81   41  103 1    
    82   41  104 1    
    83   41  105 1    
    84   42   43 am   BACKBONE|DICT|INTERRES
    85   42  106 1    
    86   43   44 2    
    87   43   45 1    
    88   45   46 1    
    89   45   49 1    
    90   45  107 1    
    91   46   47 1    
    92   46  108 1    
    93   46  109 1    
    94   47   48 1    
    95   48  110 1    
    96   48  111 1    
    97   49   50 am   BACKBONE|DICT|INTERRES
    98   49  112 1    
    99   50   51 2    
   100   50   52 1    
   101   52   53 1    
   102   52   54 1    
   103   52  113 1    
   104   53  114 1    
   105   53  115 1    
   106   53  116 1    
   107   54   55 am   BACKBONE|DICT|INTERRES
   108   54  117 1    
   109   55   56 2    
   110   55   57 1    
   111   57   58 1    
   112   57   59 1    
   113   57  118 1    
   114   58  119 1    
   115   58  120 1    
   116   58  121 1    
   117   59   60 am   BACKBONE|DICT|INTERRES
   118   59  122 1    
   119   60   61 2    
   120   60   62 1    
   121   62   63 1    
   122   62   64 1    
   123   62  123 1    
   124   63  124 1    
   125   63  125 1    
   126   63  126 1    
   127   64   65 am   BACKBONE|DICT|INTERRES
   128   64  127 1    
   129   65   66 2    
@<TRIPOS>SUBSTRUCTURE
     1 UNK         1 GROUP             0       ****    0 ROOT    
