@<TRIPOS>MOLECULE
3R135
127   129    1
SMALL
USER_CHARGES


@<TRIPOS>ATOM
      1 CA        -80.8735   24.9538  -70.1159 C.3       0 UNK        -0.1998 
      2 C         -81.7599   25.9029  -70.9068 C.2       0 UNK         0.4909 
      3 O         -82.9373   25.6058  -71.1120 O.2       0 UNK        -0.5240 
      4 N         -81.2157   27.0517  -71.3301 N.am      1 UNK        -0.4739 
      5 CA        -81.9635   28.1137  -72.0170 C.3       1 UNK         0.0864 
      6 C6        -81.3075   29.5167  -71.8828 C.3       11 UNK        -0.0881 
      7 S7        -80.6685   29.8743  -70.2008 S.3       11 UNK        -0.2682 
      8 C8        -78.8947   30.2359  -70.4694 C.3       11 UNK         0.0289 
      9 C9        -78.2197   29.2436  -71.4070 C.ar      11 UNK        -0.0687 
     10 C10       -78.0022   27.9199  -71.0080 C.ar      11 UNK        -0.0823 
     11 C11       -77.4721   26.9924  -71.9107 C.ar      11 UNK        -0.0830 
     12 C12       -77.1398   27.4046  -73.2029 C.ar      11 UNK        -0.1021 
     13 C13       -77.3380   28.7237  -73.6065 C.ar      11 UNK        -0.0753 
     14 C14       -77.8607   29.6459  -72.6989 C.ar      11 UNK        -0.0933 
     15 C15       -77.0607   29.1163  -75.0467 C.3       11 UNK         0.0166 
     16 S16       -75.2816   29.2608  -75.3789 S.3       11 UNK        -0.2615 
     17 C17       -75.2850   29.3291  -77.2088 C.3       11 UNK        -0.0865 
     18 CA        -74.3863   28.2298  -77.8299 C.3       10 UNK         0.0862 
     19 C         -74.5143   28.1929  -79.3744 C.2       10 UNK         0.5551 
     20 N         -75.1521   27.1647  -79.9163 N.am      10 UNK        -0.7319 
     21 O         -74.0737   29.1039  -80.0723 O.2       10 UNK        -0.5018 
     22 N         -73.0044   28.4015  -77.3717 N.am      10 UNK        -0.4509 
     23 C         -71.9502   27.6209  -77.6208 C.2       10 UNK         0.4899 
     24 O         -71.9808   26.6332  -78.3536 O.2       10 UNK        -0.4839 
     25 CA        -70.6413   27.9593  -76.8769 C.3       9 UNK         0.0222 
     26 CB        -69.6872   28.7723  -77.7738 C.3       9 UNK        -0.1966 
     27 N         -70.8273   28.5928  -75.5566 N.am      9 UNK        -0.4218 
     28 C         -71.2970   29.8177  -75.2695 C.2       9 UNK         0.5020 
     29 O         -71.6495   30.6332  -76.1224 O.2       9 UNK        -0.5274 
     30 CA        -71.4930   30.1333  -73.7809 C.3       8 UNK         0.0270 
     31 CB        -72.0655   31.5415  -73.5285 C.3       8 UNK        -0.1976 
     32 N         -72.3995   29.1353  -73.2189 N.am      8 UNK        -0.4313 
     33 C         -72.2101   28.4711  -72.0738 C.2       8 UNK         0.5041 
     34 O         -71.2679   28.6757  -71.3072 O.2       8 UNK        -0.5577 
     35 CA        -73.2361   27.3747  -71.7318 C.3       7 UNK         0.0284 
     36 CB        -74.3549   27.9544  -70.8526 C.3       7 UNK        -0.1958 
     37 N         -73.8137   26.7104  -72.9101 N.am      7 UNK        -0.4454 
     38 C         -73.1059   25.9743  -73.7806 C.2       7 UNK         0.5089 
     39 O         -71.8939   25.7781  -73.6714 O.2       7 UNK        -0.5125 
     40 CA        -73.8717   25.3893  -74.9849 C.3       6 UNK         0.0408 
     41 CB        -72.9772   24.5108  -75.8853 C.3       6 UNK        -0.1791 
     42 N         -75.0959   24.6511  -74.6530 N.am      6 UNK        -0.4762 
     43 C         -75.2086   23.5984  -73.8265 C.2       6 UNK         0.5007 
     44 O         -74.3153   23.2189  -73.0688 O.2       6 UNK        -0.5032 
     45 CA        -76.5229   22.7903  -73.8883 C.3       5 UNK         0.0783 
     46 C46       -77.3843   22.9329  -72.6056 C.3       11 UNK        -0.0857 
     47 S47       -78.3591   24.4660  -72.5129 S.3       11 UNK        -0.2512 
     48 C48       -77.2727   25.5374  -71.5220 C.3       11 UNK         0.0225 
     49 N         -77.2781   23.0127  -75.1339 N.am      5 UNK        -0.4615 
     50 C         -76.9586   22.4291  -76.2997 C.2       4 UNK         0.5053 
     51 O         -75.9912   21.6799  -76.4386 O.2       4 UNK        -0.5105 
     52 CA        -77.8698   22.6815  -77.5126 C.3       4 UNK         0.0263 
     53 CB        -79.0175   21.6587  -77.5362 C.3       4 UNK        -0.1981 
     54 N         -78.4298   24.0306  -77.5873 N.am      4 UNK        -0.4224 
     55 C         -77.7426   25.1386  -77.8977 C.2       3 UNK         0.4895 
     56 O         -76.5254   25.1675  -78.0877 O.2       3 UNK        -0.5091 
     57 CA        -78.5501   26.4425  -78.0580 C.3       3 UNK         0.0250 
     58 CB        -78.7968   26.7347  -79.5473 C.3       3 UNK        -0.1996 
     59 N         -79.8400   26.4790  -77.3556 N.am      3 UNK        -0.4254 
     60 C         -79.9988   26.3661  -76.0314 C.2       2 UNK         0.5004 
     61 O         -79.0757   26.1229  -75.2561 O.2       2 UNK        -0.5226 
     62 CA        -81.4259   26.5064  -75.4927 C.3       2 UNK         0.0269 
     63 CB        -82.1758   25.1658  -75.5799 C.3       2 UNK        -0.1926 
     64 N         -81.3655   26.9357  -74.0981 N.am      2 UNK        -0.4687 
     65 C         -82.2254   27.7709  -73.4996 C.2       1 UNK         0.5165 
     66 O         -83.1987   28.2674  -74.0693 O.2       1 UNK        -0.5079 
     67 H67       -80.7370   24.0222  -70.6641 H         1 UNK         0.0900 
     68 H68       -81.3363   24.7197  -69.1577 H         1 UNK         0.0900 
     69 H69       -79.8928   25.3839  -69.9184 H         1 UNK         0.0900 
     70 H70       -80.2428   27.2543  -71.1488 H         1 UNK         0.2959 
     71 H71       -82.9437   28.1776  -71.5386 H         1 UNK         0.1079 
     72 H72       -82.0444   30.2849  -72.1241 H         1 UNK         0.0837 
     73 H73       -80.5186   29.6463  -72.6216 H         1 UNK         0.0837 
     74 H74       -78.3821   30.2300  -69.5066 H         1 UNK         0.0685 
     75 H75       -78.8022   31.2519  -70.8564 H         1 UNK         0.0685 
     76 H76       -78.2732   27.6117  -70.0072 H         1 UNK         0.1434 
     77 H77       -76.7748   26.6834  -73.9193 H         1 UNK         0.1329 
     78 H78       -78.0367   30.6650  -73.0149 H         1 UNK         0.1335 
     79 H79       -77.4933   28.3592  -75.6994 H         1 UNK         0.0680 
     80 H80       -77.5519   30.0583  -75.2955 H         1 UNK         0.0680 
     81 H81       -76.3072   29.2365  -77.5798 H         1 UNK         0.1032 
     82 H82       -74.9454   30.3199  -77.5174 H         1 UNK         0.1032 
     83 H83       -74.7305   27.2668  -77.4525 H         1 UNK         0.0461 
     84 H84       -75.2513   27.1196  -80.9177 H         1 UNK         0.3453 
     85 H85       -75.5120   26.4145  -79.3358 H         1 UNK         0.3453 
     86 H86       -72.8274   29.2394  -76.8285 H         1 UNK         0.2984 
     87 H87       -70.1552   27.0047  -76.6689 H         1 UNK         0.0554 
     88 H88       -68.7395   28.9677  -77.2724 H         1 UNK         0.0847 
     89 H89       -70.1166   29.7305  -78.0674 H         1 UNK         0.0847 
     90 H90       -69.4617   28.2280  -78.6918 H         1 UNK         0.0847 
     91 H91       -70.6284   27.9871  -74.7703 H         1 UNK         0.3141 
     92 H92       -70.5093   30.0696  -73.3109 H         1 UNK         0.0743 
     93 H93       -71.4134   32.3099  -73.9457 H         1 UNK         0.0784 
     94 H94       -73.0501   31.6636  -73.9823 H         1 UNK         0.0784 
     95 H95       -72.1624   31.7423  -72.4614 H         1 UNK         0.0784 
     96 H96       -73.2084   28.9037  -73.7813 H         1 UNK         0.3213 
     97 H97       -72.7100   26.6139  -71.1509 H         1 UNK         0.0855 
     98 H98       -74.9774   28.6620  -71.4019 H         1 UNK         0.0814 
     99 H99       -73.9423   28.4851  -69.9934 H         1 UNK         0.0814 
    100 H100      -74.9970   27.1680  -70.4585 H         1 UNK         0.0814 
    101 H101      -74.8027   26.8384  -73.0689 H         1 UNK         0.3105 
    102 H102      -74.1870   26.2499  -75.5705 H         1 UNK         0.0547 
    103 H103      -73.4942   24.2355  -76.8049 H         1 UNK         0.0837 
    104 H104      -72.0644   25.0310  -76.1736 H         1 UNK         0.0837 
    105 H105      -72.6746   23.5924  -75.3815 H         1 UNK         0.0837 
    106 H106      -75.9007   24.8623  -75.2275 H         1 UNK         0.3020 
    107 H107      -76.1944   21.7477  -73.8983 H         1 UNK         0.1245 
    108 H108      -76.7763   22.8244  -71.7052 H         1 UNK         0.0781 
    109 H109      -78.0965   22.1072  -72.5691 H         1 UNK         0.0781 
    110 H110      -76.2277   25.2715  -71.6809 H         1 UNK         0.0836 
    111 H111      -77.4726   25.3765  -70.4619 H         1 UNK         0.0836 
    112 H112      -78.0708   23.6392  -75.0784 H         1 UNK         0.3022 
    113 H113      -77.2640   22.5266  -78.4083 H         1 UNK         0.0747 
    114 H114      -79.6147   21.7522  -78.4435 H         1 UNK         0.0793 
    115 H115      -78.6321   20.6383  -77.5091 H         1 UNK         0.0793 
    116 H116      -79.6837   21.7779  -76.6806 H         1 UNK         0.0793 
    117 H117      -79.4243   24.1190  -77.4420 H         1 UNK         0.3047 
    118 H118      -77.9313   27.2450  -77.6558 H         1 UNK         0.0822 
    119 H119      -77.8666   26.7218  -80.1151 H         1 UNK         0.0807 
    120 H120      -79.2439   27.7186  -79.6904 H         1 UNK         0.0807 
    121 H121      -79.4593   25.9949  -79.9986 H         1 UNK         0.0807 
    122 H122      -80.6541   26.6527  -77.9281 H         1 UNK         0.2946 
    123 H123      -81.9459   27.2595  -76.0895 H         1 UNK         0.1144 
    124 H124      -82.2454   24.8176  -76.6111 H         1 UNK         0.0793 
    125 H125      -83.1937   25.2573  -75.2006 H         1 UNK         0.0793 
    126 H126      -81.6741   24.3876  -75.0027 H         1 UNK         0.0793 
    127 H127      -80.5492   26.6129  -73.5916 H         1 UNK         0.2896 
@<TRIPOS>BOND
     1    1    2 1    
     2    1   67 1    
     3    1   68 1    
     4    1   69 1    
     5    2    3 2    
     6    2    4 am   BACKBONE|DICT|INTERRES
     7    4    5 1    
     8    4   70 1    
     9    5    6 1    
    10    5   65 1    
    11    5   71 1    
    12    6    7 1    
    13    6   72 1    
    14    6   73 1    
    15    7    8 1    
    16    8    9 1    
    17    8   74 1    
    18    8   75 1    
    19    9   10 ar   
    20    9   14 ar   
    21   10   11 ar   
    22   10   76 1    
    23   11   12 ar   
    24   11   48 1    
    25   12   13 ar   
    26   12   77 1    
    27   13   14 ar   
    28   13   15 1    
    29   14   78 1    
    30   15   16 1    
    31   15   79 1    
    32   15   80 1    
    33   16   17 1    
    34   17   18 1    
    35   17   81 1    
    36   17   82 1    
    37   18   19 1    
    38   18   22 1    
    39   18   83 1    
    40   19   20 am   BACKBONE|DICT|INTERRES
    41   19   21 2    
    42   20   84 1    
    43   20   85 1    
    44   22   23 am   BACKBONE|DICT|INTERRES
    45   22   86 1    
    46   23   24 2    
    47   23   25 1    
    48   25   26 1    
    49   25   27 1    
    50   25   87 1    
    51   26   88 1    
    52   26   89 1    
    53   26   90 1    
    54   27   28 am   BACKBONE|DICT|INTERRES
    55   27   91 1    
    56   28   29 2    
    57   28   30 1    
    58   30   31 1    
    59   30   32 1    
    60   30   92 1    
    61   31   93 1    
    62   31   94 1    
    63   31   95 1    
    64   32   33 am   BACKBONE|DICT|INTERRES
    65   32   96 1    
    66   33   34 2    
    67   33   35 1    
    68   35   36 1    
    69   35   37 1    
    70   35   97 1    
    71   36   98 1    
    72   36   99 1    
    73   36  100 1    
    74   37   38 am   BACKBONE|DICT|INTERRES
    75   37  101 1    
    76   38   39 2    
    77   38   40 1    
    78   40   41 1    
    79   40   42 1    
    80   40  102 1    
    81   41  103 1    
    82   41  104 1    
    83   41  105 1    
    84   42   43 am   BACKBONE|DICT|INTERRES
    85   42  106 1    
    86   43   44 2    
    87   43   45 1    
    88   45   46 1    
    89   45   49 1    
    90   45  107 1    
    91   46   47 1    
    92   46  108 1    
    93   46  109 1    
    94   47   48 1    
    95   48  110 1    
    96   48  111 1    
    97   49   50 am   BACKBONE|DICT|INTERRES
    98   49  112 1    
    99   50   51 2    
   100   50   52 1    
   101   52   53 1    
   102   52   54 1    
   103   52  113 1    
   104   53  114 1    
   105   53  115 1    
   106   53  116 1    
   107   54   55 am   BACKBONE|DICT|INTERRES
   108   54  117 1    
   109   55   56 2    
   110   55   57 1    
   111   57   58 1    
   112   57   59 1    
   113   57  118 1    
   114   58  119 1    
   115   58  120 1    
   116   58  121 1    
   117   59   60 am   BACKBONE|DICT|INTERRES
   118   59  122 1    
   119   60   61 2    
   120   60   62 1    
   121   62   63 1    
   122   62   64 1    
   123   62  123 1    
   124   63  124 1    
   125   63  125 1    
   126   63  126 1    
   127   64   65 am   BACKBONE|DICT|INTERRES
   128   64  127 1    
   129   65   66 2    
@<TRIPOS>SUBSTRUCTURE
     1 UNK         1 GROUP             0       ****    0 ROOT    
