@<TRIPOS>MOLECULE
3R135
127   129    1
SMALL
USER_CHARGES


@<TRIPOS>ATOM
      1 CA        -85.2927   28.9803  -73.5279 C.3       0 UNK        -0.1998 
      2 C         -84.1920   28.0165  -73.1105 C.2       0 UNK         0.4909 
      3 O         -84.4705   27.0459  -72.4059 O.2       0 UNK        -0.5240 
      4 N         -82.9510   28.2823  -73.5459 N.am      1 UNK        -0.4739 
      5 CA        -81.7353   27.4996  -73.2633 C.3       1 UNK         0.0864 
      6 C6        -81.3132   27.5162  -71.7671 C.3       11 UNK        -0.0881 
      7 S7        -81.1162   29.2051  -71.1001 S.3       11 UNK        -0.2682 
      8 C8        -79.3645   29.2116  -70.5758 C.3       11 UNK         0.0289 
      9 C9        -78.3178   29.3175  -71.6892 C.ar      11 UNK        -0.0687 
     10 C10       -78.6366   29.6349  -73.0162 C.ar      11 UNK        -0.0823 
     11 C11       -77.6372   29.7498  -73.9880 C.ar      11 UNK        -0.0830 
     12 C12       -76.2990   29.5677  -73.6244 C.ar      11 UNK        -0.1021 
     13 C13       -75.9618   29.2746  -72.3002 C.ar      11 UNK        -0.0753 
     14 C14       -76.9743   29.1411  -71.3457 C.ar      11 UNK        -0.0933 
     15 C15       -74.5054   29.1779  -71.8734 C.3       11 UNK         0.0166 
     16 S16       -74.0207   27.4865  -71.4057 S.3       11 UNK        -0.2615 
     17 C17       -73.3566   26.8112  -72.9664 C.3       11 UNK        -0.0865 
     18 CA        -71.8216   27.0272  -73.0730 C.3       10 UNK         0.0862 
     19 C         -71.1537   26.0688  -74.1024 C.2       10 UNK         0.5551 
     20 N         -70.3583   26.5464  -75.0526 N.am      10 UNK        -0.7319 
     21 O         -71.3377   24.8576  -74.0189 O.2       10 UNK        -0.5018 
     22 N         -71.5106   28.4433  -73.3059 N.am      10 UNK        -0.4509 
     23 C         -70.4499   29.1045  -72.8273 C.2       10 UNK         0.4899 
     24 O         -69.6277   28.6112  -72.0539 O.2       10 UNK        -0.4839 
     25 CA        -70.2870   30.5712  -73.2892 C.3       9 UNK         0.0222 
     26 CB        -68.8106   31.0220  -73.3143 C.3       9 UNK        -0.1966 
     27 N         -70.9468   30.8657  -74.5721 N.am      9 UNK        -0.4218 
     28 C         -70.6982   30.2778  -75.7515 C.2       9 UNK         0.5020 
     29 O         -69.8105   29.4400  -75.9344 O.2       9 UNK        -0.5274 
     30 CA        -71.6282   30.6652  -76.9149 C.3       8 UNK         0.0270 
     31 CB        -70.9835   31.7594  -77.7808 C.3       8 UNK        -0.1976 
     32 N         -71.9417   29.5041  -77.7519 N.am      8 UNK        -0.4313 
     33 C         -72.5865   28.4108  -77.3236 C.2       8 UNK         0.5041 
     34 O         -73.1098   28.3149  -76.2064 O.2       8 UNK        -0.5577 
     35 CA        -72.6320   27.2208  -78.2942 C.3       7 UNK         0.0284 
     36 CB        -71.2125   26.7395  -78.6698 C.3       7 UNK        -0.1958 
     37 N         -73.3874   26.1575  -77.6420 N.am      7 UNK        -0.4454 
     38 C         -73.7985   25.0002  -78.1701 C.2       7 UNK         0.5089 
     39 O         -73.5615   24.6415  -79.3241 O.2       7 UNK        -0.5125 
     40 CA        -74.6398   24.0927  -77.2542 C.3       6 UNK         0.0408 
     41 CB        -73.7370   23.1380  -76.4582 C.3       6 UNK        -0.1791 
     42 N         -75.4890   24.8442  -76.3255 N.am      6 UNK        -0.4762 
     43 C         -76.5355   25.5978  -76.6911 C.2       6 UNK         0.5007 
     44 O         -76.9173   25.7003  -77.8585 O.2       6 UNK        -0.5032 
     45 CA        -77.2929   26.3133  -75.5508 C.3       5 UNK         0.0783 
     46 C46       -78.3230   27.3590  -76.0503 C.3       11 UNK        -0.0857 
     47 S47       -77.4944   28.8755  -76.6431 S.3       11 UNK        -0.2512 
     48 C48       -78.0100   30.1218  -75.4184 C.3       11 UNK         0.0225 
     49 N         -77.9178   25.3129  -74.6844 N.am      5 UNK        -0.4615 
     50 C         -77.2875   24.6700  -73.6905 C.2       4 UNK         0.5053 
     51 O         -76.1190   24.8958  -73.3784 O.2       4 UNK        -0.5105 
     52 CA        -78.0547   23.5649  -72.9449 C.3       4 UNK         0.0263 
     53 CB        -78.5960   24.0870  -71.6053 C.3       4 UNK        -0.1981 
     54 N         -79.1454   22.9984  -73.7434 N.am      4 UNK        -0.4224 
     55 C         -78.9496   22.1381  -74.7559 C.2       3 UNK         0.4895 
     56 O         -77.8453   21.6821  -75.0547 O.2       3 UNK        -0.5091 
     57 CA        -80.1716   21.7109  -75.5915 C.3       3 UNK         0.0250 
     58 CB        -80.6583   20.3193  -75.1550 C.3       3 UNK        -0.1996 
     59 N         -81.3005   22.6449  -75.5555 N.am      3 UNK        -0.4254 
     60 C         -81.2759   23.9144  -75.9839 C.2       2 UNK         0.5004 
     61 O         -80.2711   24.4611  -76.4414 O.2       2 UNK        -0.5226 
     62 CA        -82.5723   24.7371  -75.8433 C.3       2 UNK         0.0269 
     63 CB        -83.7654   23.9531  -75.2486 C.3       2 UNK        -0.1926 
     64 N         -82.3526   25.9696  -75.0770 N.am      2 UNK        -0.4687 
     65 C         -81.8200   26.0713  -73.8479 C.2       1 UNK         0.5165 
     66 O         -81.4171   25.1050  -73.1962 O.2       1 UNK        -0.5079 
     67 H67       -86.0578   28.4523  -74.0964 H         1 UNK         0.0900 
     68 H68       -85.7625   29.4161  -72.6466 H         1 UNK         0.0900 
     69 H69       -84.9119   29.7936  -74.1454 H         1 UNK         0.0900 
     70 H70       -82.8064   29.1049  -74.1149 H         1 UNK         0.2959 
     71 H71       -80.9362   27.9778  -73.8279 H         1 UNK         0.1079 
     72 H72       -82.0469   26.9896  -71.1545 H         1 UNK         0.0837 
     73 H73       -80.3727   26.9799  -71.6370 H         1 UNK         0.0837 
     74 H74       -79.2243   30.0591  -69.9036 H         1 UNK         0.0685 
     75 H75       -79.1749   28.3170  -69.9804 H         1 UNK         0.0685 
     76 H76       -79.6616   29.8202  -73.2989 H         1 UNK         0.1434 
     77 H77       -75.5220   29.6780  -74.3693 H         1 UNK         0.1329 
     78 H78       -76.7081   28.9226  -70.3202 H         1 UNK         0.1335 
     79 H79       -73.8491   29.5616  -72.6539 H         1 UNK         0.0680 
     80 H80       -74.3515   29.8277  -71.0107 H         1 UNK         0.0680 
     81 H81       -73.5977   25.7467  -72.9712 H         1 UNK         0.1032 
     82 H82       -73.8832   27.2409  -73.8202 H         1 UNK         0.1032 
     83 H83       -71.3884   26.7374  -72.1137 H         1 UNK         0.0461 
     84 H84       -70.1973   27.5418  -75.1504 H         1 UNK         0.3453 
     85 H85       -69.9163   25.9017  -75.6865 H         1 UNK         0.3453 
     86 H86       -72.0961   28.9023  -73.9894 H         1 UNK         0.2984 
     87 H87       -70.8011   31.1763  -72.5411 H         1 UNK         0.0554 
     88 H88       -68.3599   30.9459  -72.3240 H         1 UNK         0.0847 
     89 H89       -68.7173   32.0609  -73.6304 H         1 UNK         0.0847 
     90 H90       -68.2115   30.4106  -73.9899 H         1 UNK         0.0847 
     91 H91       -71.6973   31.5423  -74.5275 H         1 UNK         0.3141 
     92 H92       -72.5679   31.0459  -76.5089 H         1 UNK         0.0743 
     93 H93       -70.0440   31.4234  -78.2221 H         1 UNK         0.0784 
     94 H94       -71.6451   32.0674  -78.5908 H         1 UNK         0.0784 
     95 H95       -70.7643   32.6485  -77.1877 H         1 UNK         0.0784 
     96 H96       -71.5228   29.4886  -78.6701 H         1 UNK         0.3213 
     97 H97       -73.1696   27.5309  -79.1923 H         1 UNK         0.0855 
     98 H98       -70.6587   26.4022  -77.7947 H         1 UNK         0.0814 
     99 H99       -70.6287   27.5323  -79.1376 H         1 UNK         0.0814 
    100 H100      -71.2401   25.9146  -79.3810 H         1 UNK         0.0814 
    101 H101      -73.6563   26.3975  -76.6946 H         1 UNK         0.3105 
    102 H102      -75.2908   23.4903  -77.8913 H         1 UNK         0.0547 
    103 H103      -73.1094   22.5471  -77.1266 H         1 UNK         0.0837 
    104 H104      -73.0736   23.6783  -75.7822 H         1 UNK         0.0837 
    105 H105      -74.3253   22.4383  -75.8641 H         1 UNK         0.0837 
    106 H106      -75.2829   24.7655  -75.3355 H         1 UNK         0.3020 
    107 H107      -76.5473   26.8526  -74.9603 H         1 UNK         0.1245 
    108 H108      -79.0025   27.6258  -75.2414 H         1 UNK         0.0781 
    109 H109      -78.9575   26.9557  -76.8418 H         1 UNK         0.0781 
    110 H110      -79.0853   30.2801  -75.5147 H         1 UNK         0.0836 
    111 H111      -77.5398   31.0738  -75.6686 H         1 UNK         0.0836 
    112 H112      -78.8395   25.0006  -74.9679 H         1 UNK         0.3022 
    113 H113      -77.3414   22.7678  -72.7233 H         1 UNK         0.0747 
    114 H114      -79.1260   23.3075  -71.0579 H         1 UNK         0.0793 
    115 H115      -77.7816   24.4354  -70.9684 H         1 UNK         0.0793 
    116 H116      -79.2769   24.9248  -71.7424 H         1 UNK         0.0793 
    117 H117      -80.0761   23.3609  -73.5694 H         1 UNK         0.3047 
    118 H118      -79.8381   21.6456  -76.6295 H         1 UNK         0.0822 
    119 H119      -81.4554   19.9545  -75.8032 H         1 UNK         0.0807 
    120 H120      -81.0327   20.3257  -74.1305 H         1 UNK         0.0807 
    121 H121      -79.8484   19.5896  -75.2008 H         1 UNK         0.0807 
    122 H122      -82.1637   22.2930  -75.1673 H         1 UNK         0.2946 
    123 H123      -82.8444   25.0392  -76.8561 H         1 UNK         0.1144 
    124 H124      -84.6601   24.5753  -75.2163 H         1 UNK         0.0793 
    125 H125      -83.5705   23.6142  -74.2302 H         1 UNK         0.0793 
    126 H126      -84.0116   23.0800  -75.8545 H         1 UNK         0.0793 
    127 H127      -82.6376   26.8240  -75.5350 H         1 UNK         0.2896 
@<TRIPOS>BOND
     1    1    2 1    
     2    1   67 1    
     3    1   68 1    
     4    1   69 1    
     5    2    3 2    
     6    2    4 am   BACKBONE|DICT|INTERRES
     7    4    5 1    
     8    4   70 1    
     9    5    6 1    
    10    5   65 1    
    11    5   71 1    
    12    6    7 1    
    13    6   72 1    
    14    6   73 1    
    15    7    8 1    
    16    8    9 1    
    17    8   74 1    
    18    8   75 1    
    19    9   10 ar   
    20    9   14 ar   
    21   10   11 ar   
    22   10   76 1    
    23   11   12 ar   
    24   11   48 1    
    25   12   13 ar   
    26   12   77 1    
    27   13   14 ar   
    28   13   15 1    
    29   14   78 1    
    30   15   16 1    
    31   15   79 1    
    32   15   80 1    
    33   16   17 1    
    34   17   18 1    
    35   17   81 1    
    36   17   82 1    
    37   18   19 1    
    38   18   22 1    
    39   18   83 1    
    40   19   20 am   BACKBONE|DICT|INTERRES
    41   19   21 2    
    42   20   84 1    
    43   20   85 1    
    44   22   23 am   BACKBONE|DICT|INTERRES
    45   22   86 1    
    46   23   24 2    
    47   23   25 1    
    48   25   26 1    
    49   25   27 1    
    50   25   87 1    
    51   26   88 1    
    52   26   89 1    
    53   26   90 1    
    54   27   28 am   BACKBONE|DICT|INTERRES
    55   27   91 1    
    56   28   29 2    
    57   28   30 1    
    58   30   31 1    
    59   30   32 1    
    60   30   92 1    
    61   31   93 1    
    62   31   94 1    
    63   31   95 1    
    64   32   33 am   BACKBONE|DICT|INTERRES
    65   32   96 1    
    66   33   34 2    
    67   33   35 1    
    68   35   36 1    
    69   35   37 1    
    70   35   97 1    
    71   36   98 1    
    72   36   99 1    
    73   36  100 1    
    74   37   38 am   BACKBONE|DICT|INTERRES
    75   37  101 1    
    76   38   39 2    
    77   38   40 1    
    78   40   41 1    
    79   40   42 1    
    80   40  102 1    
    81   41  103 1    
    82   41  104 1    
    83   41  105 1    
    84   42   43 am   BACKBONE|DICT|INTERRES
    85   42  106 1    
    86   43   44 2    
    87   43   45 1    
    88   45   46 1    
    89   45   49 1    
    90   45  107 1    
    91   46   47 1    
    92   46  108 1    
    93   46  109 1    
    94   47   48 1    
    95   48  110 1    
    96   48  111 1    
    97   49   50 am   BACKBONE|DICT|INTERRES
    98   49  112 1    
    99   50   51 2    
   100   50   52 1    
   101   52   53 1    
   102   52   54 1    
   103   52  113 1    
   104   53  114 1    
   105   53  115 1    
   106   53  116 1    
   107   54   55 am   BACKBONE|DICT|INTERRES
   108   54  117 1    
   109   55   56 2    
   110   55   57 1    
   111   57   58 1    
   112   57   59 1    
   113   57  118 1    
   114   58  119 1    
   115   58  120 1    
   116   58  121 1    
   117   59   60 am   BACKBONE|DICT|INTERRES
   118   59  122 1    
   119   60   61 2    
   120   60   62 1    
   121   62   63 1    
   122   62   64 1    
   123   62  123 1    
   124   63  124 1    
   125   63  125 1    
   126   63  126 1    
   127   64   65 am   BACKBONE|DICT|INTERRES
   128   64  127 1    
   129   65   66 2    
@<TRIPOS>SUBSTRUCTURE
     1 UNK         1 GROUP             0       ****    0 ROOT    
