@<TRIPOS>MOLECULE
3R135
127   129    1
SMALL
USER_CHARGES


@<TRIPOS>ATOM
      1 CA        -78.3851   29.4374  -74.8567 C.3       0 UNK        -0.1998 
      2 C         -79.8156   28.9447  -74.6985 C.2       0 UNK         0.4909 
      3 O         -80.5928   29.0041  -75.6511 O.2       0 UNK        -0.5240 
      4 N         -80.1604   28.4689  -73.4950 N.am      1 UNK        -0.4739 
      5 CA        -81.5028   28.0365  -73.0730 C.3       1 UNK         0.0864 
      6 C6        -82.5296   29.1951  -72.9646 C.3       11 UNK        -0.0881 
      7 S7        -81.9516   30.6549  -72.0158 S.3       11 UNK        -0.2682 
      8 C8        -81.4157   29.9835  -70.4005 C.3       11 UNK         0.0289 
      9 C9        -79.9657   29.5066  -70.4152 C.ar      11 UNK        -0.0687 
     10 C10       -79.6599   28.1544  -70.2345 C.ar      11 UNK        -0.0823 
     11 C11       -78.3434   27.6987  -70.3289 C.ar      11 UNK        -0.0830 
     12 C12       -77.3146   28.6316  -70.4968 C.ar      11 UNK        -0.1021 
     13 C13       -77.5929   29.9955  -70.6590 C.ar      11 UNK        -0.0753 
     14 C14       -78.9258   30.4183  -70.6229 C.ar      11 UNK        -0.0933 
     15 C15       -76.5054   31.0486  -70.8952 C.3       11 UNK         0.0166 
     16 S16       -74.7791   30.4816  -70.6932 S.3       11 UNK        -0.2615 
     17 C17       -74.4793   29.5633  -72.2468 C.3       11 UNK        -0.0865 
     18 CA        -73.2161   30.0758  -72.9848 C.3       10 UNK         0.0862 
     19 C         -71.9088   29.6172  -72.2799 C.2       10 UNK         0.5551 
     20 N         -71.1762   30.5319  -71.6595 N.am      10 UNK        -0.7319 
     21 O         -71.5781   28.4334  -72.2655 O.2       10 UNK        -0.5018 
     22 N         -73.2250   29.6631  -74.3928 N.am      10 UNK        -0.4509 
     23 C         -72.4325   30.1850  -75.3383 C.2       10 UNK         0.4899 
     24 O         -71.7093   31.1675  -75.1638 O.2       10 UNK        -0.4839 
     25 CA        -72.4546   29.4708  -76.7017 C.3       9 UNK         0.0222 
     26 CB        -71.4348   30.0392  -77.7111 C.3       9 UNK        -0.1966 
     27 N         -72.3023   28.0202  -76.5545 N.am      9 UNK        -0.4218 
     28 C         -71.2652   27.3438  -76.0352 C.2       9 UNK         0.5020 
     29 O         -70.2103   27.8652  -75.6715 O.2       9 UNK        -0.5274 
     30 CA        -71.4307   25.8183  -75.8814 C.3       8 UNK         0.0270 
     31 CB        -71.7298   25.4654  -74.4154 C.3       8 UNK        -0.1976 
     32 N         -72.4794   25.2512  -76.7357 N.am      8 UNK        -0.4313 
     33 C         -72.4018   25.1552  -78.0709 C.2       8 UNK         0.5041 
     34 O         -71.3967   25.4436  -78.7216 O.2       8 UNK        -0.5577 
     35 CA        -73.6714   24.6995  -78.8086 C.3       7 UNK         0.0284 
     36 CB        -73.7675   23.1656  -78.8256 C.3       7 UNK        -0.1958 
     37 N         -74.8966   25.2731  -78.2405 N.am      7 UNK        -0.4454 
     38 C         -75.2016   26.5798  -78.2468 C.2       7 UNK         0.5089 
     39 O         -74.5002   27.4425  -78.7734 O.2       7 UNK        -0.5125 
     40 CA        -76.4723   27.0111  -77.4958 C.3       6 UNK         0.0408 
     41 CB        -77.7308   26.7546  -78.3372 C.3       6 UNK        -0.1791 
     42 N         -76.6007   26.3530  -76.1948 N.am      6 UNK        -0.4762 
     43 C         -75.7856   26.5627  -75.1514 C.2       6 UNK         0.5007 
     44 O         -74.8896   27.4077  -75.1451 O.2       6 UNK        -0.5032 
     45 CA        -75.9701   25.6605  -73.9166 C.3       5 UNK         0.0783 
     46 C46       -76.9249   26.2981  -72.8801 C.3       11 UNK        -0.0857 
     47 S47       -76.6308   25.6076  -71.2159 S.3       11 UNK        -0.2512 
     48 C48       -78.0720   26.1949  -70.2520 C.3       11 UNK         0.0225 
     49 N         -76.3842   24.3052  -74.2897 N.am      5 UNK        -0.4615 
     50 C         -75.5955   23.4201  -74.9114 C.2       4 UNK         0.5053 
     51 O         -74.4269   23.6479  -75.2252 O.2       4 UNK        -0.5105 
     52 CA        -76.2352   22.0709  -75.2791 C.3       4 UNK         0.0263 
     53 CB        -76.3557   21.1687  -74.0405 C.3       4 UNK        -0.1981 
     54 N         -77.5493   22.2218  -75.9122 N.am      4 UNK        -0.4224 
     55 C         -77.7442   22.7935  -77.1092 C.2       3 UNK         0.4895 
     56 O         -76.8358   23.2331  -77.8113 O.2       3 UNK        -0.5091 
     57 CA        -79.1953   22.9354  -77.6007 C.3       3 UNK         0.0250 
     58 CB        -79.6529   21.6422  -78.2942 C.3       3 UNK        -0.1996 
     59 N         -80.1749   23.3144  -76.5748 N.am      3 UNK        -0.4254 
     60 C         -80.0729   24.3516  -75.7322 C.2       2 UNK         0.5004 
     61 O         -79.0693   25.0628  -75.6258 O.2       2 UNK        -0.5226 
     62 CA        -81.2905   24.6266  -74.8425 C.3       2 UNK         0.0269 
     63 CB        -81.4764   23.5194  -73.7887 C.3       2 UNK        -0.1926 
     64 N         -81.0811   25.9009  -74.1665 N.am      2 UNK        -0.4687 
     65 C         -82.0154   26.7973  -73.8365 C.2       1 UNK         0.5165 
     66 O         -83.2168   26.6539  -74.0710 O.2       1 UNK        -0.5079 
     67 H67       -77.8123   29.3386  -73.9351 H         1 UNK         0.0900 
     68 H68       -77.8803   28.8717  -75.6367 H         1 UNK         0.0900 
     69 H69       -78.3821   30.4886  -75.1436 H         1 UNK         0.0900 
     70 H70       -79.4766   28.4891  -72.7504 H         1 UNK         0.2959 
     71 H71       -81.3953   27.6398  -72.0695 H         1 UNK         0.1079 
     72 H72       -82.8082   29.5377  -73.9626 H         1 UNK         0.0837 
     73 H73       -83.4524   28.8413  -72.5012 H         1 UNK         0.0837 
     74 H74       -81.5129   30.7697  -69.6506 H         1 UNK         0.0685 
     75 H75       -82.0944   29.1863  -70.0933 H         1 UNK         0.0685 
     76 H76       -80.4549   27.4437  -70.0538 H         1 UNK         0.1434 
     77 H77       -76.2964   28.2765  -70.5222 H         1 UNK         0.1329 
     78 H78       -79.1599   31.4652  -70.7625 H         1 UNK         0.1335 
     79 H79       -76.6630   31.8671  -70.1913 H         1 UNK         0.0680 
     80 H80       -76.6284   31.4759  -71.8915 H         1 UNK         0.0680 
     81 H81       -75.3530   29.6723  -72.8910 H         1 UNK         0.1032 
     82 H82       -74.4021   28.4956  -72.0311 H         1 UNK         0.1032 
     83 H83       -73.2516   31.1677  -72.9808 H         1 UNK         0.0461 
     84 H84       -71.4506   31.5019  -71.6590 H         1 UNK         0.3453 
     85 H85       -70.3327   30.2480  -71.1867 H         1 UNK         0.3453 
     86 H86       -73.7712   28.8364  -74.6224 H         1 UNK         0.2984 
     87 H87       -73.4513   29.6301  -77.1159 H         1 UNK         0.0554 
     88 H88       -71.4936   29.5187  -78.6670 H         1 UNK         0.0847 
     89 H89       -70.4105   29.9570  -77.3463 H         1 UNK         0.0847 
     90 H90       -71.6260   31.0953  -77.9045 H         1 UNK         0.0847 
     91 H91       -73.1238   27.4826  -76.7990 H         1 UNK         0.3141 
     92 H92       -70.4816   25.3549  -76.1587 H         1 UNK         0.0743 
     93 H93       -72.6578   25.9241  -74.0740 H         1 UNK         0.0784 
     94 H94       -71.8122   24.3879  -74.2717 H         1 UNK         0.0784 
     95 H95       -70.9347   25.8218  -73.7587 H         1 UNK         0.0784 
     96 H96       -73.3107   24.8965  -76.2694 H         1 UNK         0.3213 
     97 H97       -73.5928   25.0454  -79.8416 H         1 UNK         0.0855 
     98 H98       -73.8973   22.7571  -77.8229 H         1 UNK         0.0814 
     99 H99       -72.8643   22.7214  -79.2461 H         1 UNK         0.0814 
    100 H100      -74.6068   22.8289  -79.4342 H         1 UNK         0.0814 
    101 H101      -75.5652   24.6144  -77.8462 H         1 UNK         0.3105 
    102 H102      -76.4000   28.0864  -77.3213 H         1 UNK         0.0547 
    103 H103      -77.6828   27.2949  -79.2834 H         1 UNK         0.0837 
    104 H104      -77.8511   25.6977  -78.5721 H         1 UNK         0.0837 
    105 H105      -78.6301   27.0867  -77.8175 H         1 UNK         0.0837 
    106 H106      -77.3667   25.6911  -76.0853 H         1 UNK         0.3020 
    107 H107      -74.9802   25.5857  -73.4605 H         1 UNK         0.1245 
    108 H108      -77.9688   26.1562  -73.1640 H         1 UNK         0.0781 
    109 H109      -76.7626   27.3747  -72.8243 H         1 UNK         0.0781 
    110 H110      -77.9251   25.9214  -69.2064 H         1 UNK         0.0836 
    111 H111      -78.9475   25.6409  -70.5946 H         1 UNK         0.0836 
    112 H112      -77.3499   24.0656  -74.1207 H         1 UNK         0.3022 
    113 H113      -75.5736   21.5777  -75.9947 H         1 UNK         0.0747 
    114 H114      -76.7228   20.1773  -74.3067 H         1 UNK         0.0793 
    115 H115      -75.3848   21.0345  -73.5612 H         1 UNK         0.0793 
    116 H116      -77.0318   21.5882  -73.2944 H         1 UNK         0.0793 
    117 H117      -78.3534   21.8923  -75.3987 H         1 UNK         0.3047 
    118 H118      -79.2012   23.7321  -78.3466 H         1 UNK         0.0822 
    119 H119      -80.6256   21.7685  -78.7701 H         1 UNK         0.0807 
    120 H120      -79.7272   20.8107  -77.5922 H         1 UNK         0.0807 
    121 H121      -78.9501   21.3477  -79.0752 H         1 UNK         0.0807 
    122 H122      -81.0322   22.7802  -76.5682 H         1 UNK         0.2946 
    123 H123      -82.1740   24.6884  -75.4823 H         1 UNK         0.1144 
    124 H124      -81.6590   22.5509  -74.2554 H         1 UNK         0.0793 
    125 H125      -82.3298   23.7285  -73.1433 H         1 UNK         0.0793 
    126 H126      -80.5960   23.4167  -73.1527 H         1 UNK         0.0793 
    127 H127      -80.1078   26.1490  -74.0473 H         1 UNK         0.2896 
@<TRIPOS>BOND
     1    1    2 1    
     2    1   67 1    
     3    1   68 1    
     4    1   69 1    
     5    2    3 2    
     6    2    4 am   BACKBONE|DICT|INTERRES
     7    4    5 1    
     8    4   70 1    
     9    5    6 1    
    10    5   65 1    
    11    5   71 1    
    12    6    7 1    
    13    6   72 1    
    14    6   73 1    
    15    7    8 1    
    16    8    9 1    
    17    8   74 1    
    18    8   75 1    
    19    9   10 ar   
    20    9   14 ar   
    21   10   11 ar   
    22   10   76 1    
    23   11   12 ar   
    24   11   48 1    
    25   12   13 ar   
    26   12   77 1    
    27   13   14 ar   
    28   13   15 1    
    29   14   78 1    
    30   15   16 1    
    31   15   79 1    
    32   15   80 1    
    33   16   17 1    
    34   17   18 1    
    35   17   81 1    
    36   17   82 1    
    37   18   19 1    
    38   18   22 1    
    39   18   83 1    
    40   19   20 am   BACKBONE|DICT|INTERRES
    41   19   21 2    
    42   20   84 1    
    43   20   85 1    
    44   22   23 am   BACKBONE|DICT|INTERRES
    45   22   86 1    
    46   23   24 2    
    47   23   25 1    
    48   25   26 1    
    49   25   27 1    
    50   25   87 1    
    51   26   88 1    
    52   26   89 1    
    53   26   90 1    
    54   27   28 am   BACKBONE|DICT|INTERRES
    55   27   91 1    
    56   28   29 2    
    57   28   30 1    
    58   30   31 1    
    59   30   32 1    
    60   30   92 1    
    61   31   93 1    
    62   31   94 1    
    63   31   95 1    
    64   32   33 am   BACKBONE|DICT|INTERRES
    65   32   96 1    
    66   33   34 2    
    67   33   35 1    
    68   35   36 1    
    69   35   37 1    
    70   35   97 1    
    71   36   98 1    
    72   36   99 1    
    73   36  100 1    
    74   37   38 am   BACKBONE|DICT|INTERRES
    75   37  101 1    
    76   38   39 2    
    77   38   40 1    
    78   40   41 1    
    79   40   42 1    
    80   40  102 1    
    81   41  103 1    
    82   41  104 1    
    83   41  105 1    
    84   42   43 am   BACKBONE|DICT|INTERRES
    85   42  106 1    
    86   43   44 2    
    87   43   45 1    
    88   45   46 1    
    89   45   49 1    
    90   45  107 1    
    91   46   47 1    
    92   46  108 1    
    93   46  109 1    
    94   47   48 1    
    95   48  110 1    
    96   48  111 1    
    97   49   50 am   BACKBONE|DICT|INTERRES
    98   49  112 1    
    99   50   51 2    
   100   50   52 1    
   101   52   53 1    
   102   52   54 1    
   103   52  113 1    
   104   53  114 1    
   105   53  115 1    
   106   53  116 1    
   107   54   55 am   BACKBONE|DICT|INTERRES
   108   54  117 1    
   109   55   56 2    
   110   55   57 1    
   111   57   58 1    
   112   57   59 1    
   113   57  118 1    
   114   58  119 1    
   115   58  120 1    
   116   58  121 1    
   117   59   60 am   BACKBONE|DICT|INTERRES
   118   59  122 1    
   119   60   61 2    
   120   60   62 1    
   121   62   63 1    
   122   62   64 1    
   123   62  123 1    
   124   63  124 1    
   125   63  125 1    
   126   63  126 1    
   127   64   65 am   BACKBONE|DICT|INTERRES
   128   64  127 1    
   129   65   66 2    
@<TRIPOS>SUBSTRUCTURE
     1 UNK         1 GROUP             0       ****    0 ROOT    
