@<TRIPOS>MOLECULE
3R135
127   129    1
SMALL
USER_CHARGES


@<TRIPOS>ATOM
      1 CA        -84.8698   25.1252  -70.9178 C.3       0 UNK        -0.1998 
      2 C         -83.6048   25.2046  -71.7588 C.2       0 UNK         0.4909 
      3 O         -83.2188   24.2077  -72.3711 O.2       0 UNK        -0.5240 
      4 N         -82.9661   26.3836  -71.7931 N.am      1 UNK        -0.4739 
      5 CA        -81.7349   26.7304  -72.5214 C.3       1 UNK         0.0864 
      6 C6        -80.4995   25.8773  -72.1199 C.3       11 UNK        -0.0881 
      7 S7        -79.9042   26.2873  -70.4430 S.3       11 UNK        -0.2682 
      8 C8        -78.0923   26.3547  -70.6797 C.3       11 UNK         0.0289 
      9 C9        -77.5514   27.7103  -71.1378 C.ar      11 UNK        -0.0687 
     10 C10       -78.2070   28.4748  -72.1092 C.ar      11 UNK        -0.0823 
     11 C11       -77.6576   29.6706  -72.5748 C.ar      11 UNK        -0.0830 
     12 C12       -76.4459   30.1219  -72.0479 C.ar      11 UNK        -0.1021 
     13 C13       -75.7836   29.3820  -71.0650 C.ar      11 UNK        -0.0753 
     14 C14       -76.3396   28.1790  -70.6160 C.ar      11 UNK        -0.0933 
     15 C15       -74.4588   29.8766  -70.5058 C.3       11 UNK         0.0166 
     16 S16       -73.0714   28.9625  -71.2416 S.3       11 UNK        -0.2615 
     17 C17       -71.7692   30.2393  -71.3107 C.3       11 UNK        -0.0865 
     18 CA        -71.7067   30.9523  -72.6885 C.3       10 UNK         0.0862 
     19 C         -70.6399   32.0857  -72.6808 C.2       10 UNK         0.5551 
     20 N         -69.6012   32.0302  -73.5058 N.am      10 UNK        -0.7319 
     21 O         -70.7620   33.0365  -71.9124 O.2       10 UNK        -0.5018 
     22 N         -71.5774   29.9877  -73.7935 N.am      10 UNK        -0.4509 
     23 C         -71.9068   30.2117  -75.0695 C.2       10 UNK         0.4899 
     24 O         -72.3214   31.2937  -75.4859 O.2       10 UNK        -0.4839 
     25 CA        -71.7736   29.0357  -76.0563 C.3       9 UNK         0.0222 
     26 CB        -70.3790   29.0089  -76.7113 C.3       9 UNK        -0.1966 
     27 N         -72.1454   27.7220  -75.5070 N.am      9 UNK        -0.4218 
     28 C         -71.5193   26.9834  -74.5779 C.2       9 UNK         0.5020 
     29 O         -70.4868   27.3359  -74.0056 O.2       9 UNK        -0.5274 
     30 CA        -72.1555   25.6378  -74.1910 C.3       8 UNK         0.0270 
     31 CB        -73.0262   25.7946  -72.9354 C.3       8 UNK        -0.1976 
     32 N         -72.9504   25.0345  -75.2642 N.am      8 UNK        -0.4313 
     33 C         -72.4206   24.3904  -76.3144 C.2       8 UNK         0.5041 
     34 O         -71.2092   24.2606  -76.4970 O.2       8 UNK        -0.5577 
     35 CA        -73.4001   23.7739  -77.3281 C.3       7 UNK         0.0284 
     36 CB        -74.0294   22.4890  -76.7669 C.3       7 UNK        -0.1958 
     37 N         -74.4518   24.7040  -77.7406 N.am      7 UNK        -0.4454 
     38 C         -74.2415   25.8014  -78.4816 C.2       7 UNK         0.5089 
     39 O         -73.1441   26.1287  -78.9336 O.2       7 UNK        -0.5125 
     40 CA        -75.4608   26.6992  -78.7496 C.3       6 UNK         0.0408 
     41 CB        -76.2473   26.2041  -79.9737 C.3       6 UNK        -0.1791 
     42 N         -76.3548   26.7973  -77.5943 N.am      6 UNK        -0.4762 
     43 C         -76.0272   27.3793  -76.4309 C.2       6 UNK         0.5007 
     44 O         -74.9331   27.8969  -76.2093 O.2       6 UNK        -0.5032 
     45 CA        -77.0855   27.3189  -75.3130 C.3       5 UNK         0.0783 
     46 C46       -78.2224   28.3465  -75.5501 C.3       11 UNK        -0.0857 
     47 S47       -77.6922   30.0781  -75.3096 S.3       11 UNK        -0.2512 
     48 C48       -78.3659   30.4625  -73.6627 C.3       11 UNK         0.0225 
     49 N         -77.6069   25.9553  -75.1617 N.am      5 UNK        -0.4615 
     50 C         -76.8679   24.9021  -74.7752 C.2       4 UNK         0.5053 
     51 O         -75.6895   24.9889  -74.4376 O.2       4 UNK        -0.5105 
     52 CA        -77.5138   23.5042  -74.8203 C.3       4 UNK         0.0263 
     53 CB        -78.0703   23.1119  -73.4443 C.3       4 UNK        -0.1981 
     54 N         -78.5611   23.3734  -75.8332 N.am      4 UNK        -0.4224 
     55 C         -78.3713   23.5244  -77.1519 C.2       3 UNK         0.4895 
     56 O         -77.2650   23.6974  -77.6652 O.2       3 UNK        -0.5091 
     57 CA        -79.6287   23.5454  -78.0419 C.3       3 UNK         0.0250 
     58 CB        -79.8509   22.1671  -78.6839 C.3       3 UNK        -0.1996 
     59 N         -80.8615   23.9695  -77.3590 N.am      3 UNK        -0.4254 
     60 C         -81.0412   25.1389  -76.7242 C.2       2 UNK         0.5004 
     61 O         -80.1483   25.9795  -76.6100 O.2       2 UNK        -0.5226 
     62 CA        -82.4202   25.4094  -76.0882 C.3       2 UNK         0.0269 
     63 CB        -83.4579   24.2933  -76.3284 C.3       2 UNK        -0.1926 
     64 N         -82.2847   25.6203  -74.6460 N.am      2 UNK        -0.4687 
     65 C         -81.9331   26.7666  -74.0509 C.2       1 UNK         0.5165 
     66 O         -81.7735   27.8301  -74.6504 O.2       1 UNK        -0.5079 
     67 H67       -85.7195   24.8542  -71.5439 H         1 UNK         0.0900 
     68 H68       -85.0965   26.0726  -70.4293 H         1 UNK         0.0900 
     69 H69       -84.7585   24.3641  -70.1460 H         1 UNK         0.0900 
     70 H70       -83.3659   27.1528  -71.2731 H         1 UNK         0.2959 
     71 H71       -81.5217   27.7631  -72.2391 H         1 UNK         0.1079 
     72 H72       -80.7299   24.8125  -72.1486 H         1 UNK         0.0837 
     73 H73       -79.6835   26.0149  -72.8312 H         1 UNK         0.0837 
     74 H74       -77.6338   26.0822  -69.7279 H         1 UNK         0.0685 
     75 H75       -77.7836   25.5883  -71.3920 H         1 UNK         0.0685 
     76 H76       -79.1406   28.1404  -72.5284 H         1 UNK         0.1434 
     77 H77       -76.0129   31.0431  -72.4138 H         1 UNK         0.1329 
     78 H78       -75.8114   27.5979  -69.8722 H         1 UNK         0.1335 
     79 H79       -74.3472   30.9444  -70.7012 H         1 UNK         0.0680 
     80 H80       -74.4387   29.7559  -69.4217 H         1 UNK         0.0680 
     81 H81       -71.9288   30.9584  -70.5048 H         1 UNK         0.1032 
     82 H82       -70.8142   29.7565  -71.0950 H         1 UNK         0.1032 
     83 H83       -72.6644   31.4583  -72.8262 H         1 UNK         0.0461 
     84 H84       -68.9181   32.7712  -73.4950 H         1 UNK         0.3453 
     85 H85       -69.4986   31.2540  -74.1393 H         1 UNK         0.3453 
     86 H86       -71.2075   29.0721  -73.5577 H         1 UNK         0.2984 
     87 H87       -72.4978   29.2211  -76.8513 H         1 UNK         0.0554 
     88 H88       -70.3099   28.2197  -77.4601 H         1 UNK         0.0847 
     89 H89       -69.5848   28.8497  -75.9816 H         1 UNK         0.0847 
     90 H90       -70.1693   29.9532  -77.2152 H         1 UNK         0.0847 
     91 H91       -73.0514   27.3927  -75.8285 H         1 UNK         0.3141 
     92 H92       -71.3414   24.9525  -73.9447 H         1 UNK         0.0743 
     93 H93       -72.4314   26.1509  -72.0937 H         1 UNK         0.0784 
     94 H94       -73.8358   26.5095  -73.0914 H         1 UNK         0.0784 
     95 H95       -73.4708   24.8452  -72.6366 H         1 UNK         0.0784 
     96 H96       -73.9623   25.0650  -75.1495 H         1 UNK         0.3213 
     97 H97       -72.8299   23.5051  -78.2202 H         1 UNK         0.0855 
     98 H98       -74.5618   22.6742  -75.8348 H         1 UNK         0.0814 
     99 H99       -73.2624   21.7424  -76.5574 H         1 UNK         0.0814 
    100 H100      -74.7311   22.0454  -77.4738 H         1 UNK         0.0814 
    101 H101      -75.4062   24.4777  -77.4772 H         1 UNK         0.3105 
    102 H102      -75.0909   27.7031  -78.9693 H         1 UNK         0.0547 
    103 H103      -77.0746   26.8726  -80.2118 H         1 UNK         0.0837 
    104 H104      -75.6055   26.1584  -80.8545 H         1 UNK         0.0837 
    105 H105      -76.6561   25.2052  -79.8187 H         1 UNK         0.0837 
    106 H106      -77.2572   26.3498  -77.6739 H         1 UNK         0.3020 
    107 H107      -76.5797   27.5726  -74.3779 H         1 UNK         0.1245 
    108 H108      -79.0595   28.1410  -74.8836 H         1 UNK         0.0781 
    109 H109      -78.6329   28.2502  -76.5569 H         1 UNK         0.0781 
    110 H110      -78.2492   31.5307  -73.4739 H         1 UNK         0.0836 
    111 H111      -79.4398   30.2680  -73.6503 H         1 UNK         0.0836 
    112 H112      -78.5525   25.8045  -75.5015 H         1 UNK         0.3022 
    113 H113      -76.7278   22.7920  -75.0744 H         1 UNK         0.0747 
    114 H114      -78.3982   22.0723  -73.4321 H         1 UNK         0.0793 
    115 H115      -78.9175   23.7321  -73.1597 H         1 UNK         0.0793 
    116 H116      -77.3100   23.2188  -72.6690 H         1 UNK         0.0793 
    117 H117      -79.5036   23.2283  -75.5029 H         1 UNK         0.3047 
    118 H118      -79.4377   24.2665  -78.8395 H         1 UNK         0.0822 
    119 H119      -78.9591   21.8375  -79.2195 H         1 UNK         0.0807 
    120 H120      -80.6676   22.1912  -79.4056 H         1 UNK         0.0807 
    121 H121      -80.0825   21.4061  -77.9376 H         1 UNK         0.0807 
    122 H122      -81.6409   23.3286  -77.4016 H         1 UNK         0.2946 
    123 H123      -82.7995   26.3252  -76.5475 H         1 UNK         0.1144 
    124 H124      -83.6257   24.1262  -77.3934 H         1 UNK         0.0793 
    125 H125      -84.4228   24.5635  -75.8984 H         1 UNK         0.0793 
    126 H126      -83.1563   23.3462  -75.8788 H         1 UNK         0.0793 
    127 H127      -82.4632   24.8245  -74.0392 H         1 UNK         0.2896 
@<TRIPOS>BOND
     1    1    2 1    
     2    1   67 1    
     3    1   68 1    
     4    1   69 1    
     5    2    3 2    
     6    2    4 am   BACKBONE|DICT|INTERRES
     7    4    5 1    
     8    4   70 1    
     9    5    6 1    
    10    5   65 1    
    11    5   71 1    
    12    6    7 1    
    13    6   72 1    
    14    6   73 1    
    15    7    8 1    
    16    8    9 1    
    17    8   74 1    
    18    8   75 1    
    19    9   10 ar   
    20    9   14 ar   
    21   10   11 ar   
    22   10   76 1    
    23   11   12 ar   
    24   11   48 1    
    25   12   13 ar   
    26   12   77 1    
    27   13   14 ar   
    28   13   15 1    
    29   14   78 1    
    30   15   16 1    
    31   15   79 1    
    32   15   80 1    
    33   16   17 1    
    34   17   18 1    
    35   17   81 1    
    36   17   82 1    
    37   18   19 1    
    38   18   22 1    
    39   18   83 1    
    40   19   20 am   BACKBONE|DICT|INTERRES
    41   19   21 2    
    42   20   84 1    
    43   20   85 1    
    44   22   23 am   BACKBONE|DICT|INTERRES
    45   22   86 1    
    46   23   24 2    
    47   23   25 1    
    48   25   26 1    
    49   25   27 1    
    50   25   87 1    
    51   26   88 1    
    52   26   89 1    
    53   26   90 1    
    54   27   28 am   BACKBONE|DICT|INTERRES
    55   27   91 1    
    56   28   29 2    
    57   28   30 1    
    58   30   31 1    
    59   30   32 1    
    60   30   92 1    
    61   31   93 1    
    62   31   94 1    
    63   31   95 1    
    64   32   33 am   BACKBONE|DICT|INTERRES
    65   32   96 1    
    66   33   34 2    
    67   33   35 1    
    68   35   36 1    
    69   35   37 1    
    70   35   97 1    
    71   36   98 1    
    72   36   99 1    
    73   36  100 1    
    74   37   38 am   BACKBONE|DICT|INTERRES
    75   37  101 1    
    76   38   39 2    
    77   38   40 1    
    78   40   41 1    
    79   40   42 1    
    80   40  102 1    
    81   41  103 1    
    82   41  104 1    
    83   41  105 1    
    84   42   43 am   BACKBONE|DICT|INTERRES
    85   42  106 1    
    86   43   44 2    
    87   43   45 1    
    88   45   46 1    
    89   45   49 1    
    90   45  107 1    
    91   46   47 1    
    92   46  108 1    
    93   46  109 1    
    94   47   48 1    
    95   48  110 1    
    96   48  111 1    
    97   49   50 am   BACKBONE|DICT|INTERRES
    98   49  112 1    
    99   50   51 2    
   100   50   52 1    
   101   52   53 1    
   102   52   54 1    
   103   52  113 1    
   104   53  114 1    
   105   53  115 1    
   106   53  116 1    
   107   54   55 am   BACKBONE|DICT|INTERRES
   108   54  117 1    
   109   55   56 2    
   110   55   57 1    
   111   57   58 1    
   112   57   59 1    
   113   57  118 1    
   114   58  119 1    
   115   58  120 1    
   116   58  121 1    
   117   59   60 am   BACKBONE|DICT|INTERRES
   118   59  122 1    
   119   60   61 2    
   120   60   62 1    
   121   62   63 1    
   122   62   64 1    
   123   62  123 1    
   124   63  124 1    
   125   63  125 1    
   126   63  126 1    
   127   64   65 am   BACKBONE|DICT|INTERRES
   128   64  127 1    
   129   65   66 2    
@<TRIPOS>SUBSTRUCTURE
     1 UNK         1 GROUP             0       ****    0 ROOT    
