@<TRIPOS>MOLECULE
3R135
127   129    1
SMALL
USER_CHARGES


@<TRIPOS>ATOM
      1 CA        -78.9529   31.3998  -74.5040 C.3       0 UNK        -0.1998 
      2 C         -80.1357   30.4762  -74.7779 C.2       0 UNK         0.4909 
      3 O         -81.2609   30.9564  -74.8996 O.2       0 UNK        -0.5240 
      4 N         -79.9436   29.1562  -74.8877 N.am      1 UNK        -0.4739 
      5 CA        -78.6767   28.4275  -74.7703 C.3       1 UNK         0.0864 
      6 C6        -78.3347   28.0267  -73.3109 C.3       11 UNK        -0.0881 
      7 S7        -79.6306   27.0609  -72.4520 S.3       11 UNK        -0.2682 
      8 C8        -79.3912   27.5697  -70.7157 C.3       11 UNK         0.0289 
      9 C9        -77.9425   27.4073  -70.2775 C.ar      11 UNK        -0.0687 
     10 C10       -77.4042   26.1329  -70.0802 C.ar      11 UNK        -0.0823 
     11 C11       -76.0457   25.9740  -69.7839 C.ar      11 UNK        -0.0830 
     12 C12       -75.2350   27.1065  -69.6573 C.ar      11 UNK        -0.1021 
     13 C13       -75.7695   28.3873  -69.8223 C.ar      11 UNK        -0.0753 
     14 C14       -77.1272   28.5317  -70.1187 C.ar      11 UNK        -0.0933 
     15 C15       -74.8731   29.6092  -69.6901 C.3       11 UNK         0.0166 
     16 S16       -74.1153   30.0601  -71.2829 S.3       11 UNK        -0.2615 
     17 C17       -75.4343   31.0818  -72.0301 C.3       11 UNK        -0.0865 
     18 CA        -75.1678   31.4707  -73.5067 C.3       10 UNK         0.0862 
     19 C         -74.0105   32.5055  -73.6488 C.2       10 UNK         0.5551 
     20 N         -72.9173   32.2033  -74.3401 N.am      10 UNK        -0.7319 
     21 O         -74.1181   33.6142  -73.1304 O.2       10 UNK        -0.5018 
     22 N         -75.0461   30.2788  -74.3574 N.am      10 UNK        -0.4509 
     23 C         -75.2233   30.2638  -75.6840 C.2       10 UNK         0.4899 
     24 O         -75.6652   31.2203  -76.3209 O.2       10 UNK        -0.4839 
     25 CA        -74.8603   28.9573  -76.4200 C.3       9 UNK         0.0222 
     26 CB        -74.4522   29.2086  -77.8860 C.3       9 UNK        -0.1966 
     27 N         -73.8458   28.1443  -75.7350 N.am      9 UNK        -0.4218 
     28 C         -72.5972   28.5045  -75.3933 C.2       9 UNK         0.5020 
     29 O         -72.1276   29.6281  -75.5769 O.2       9 UNK        -0.5274 
     30 CA        -71.7341   27.4288  -74.7187 C.3       8 UNK         0.0270 
     31 CB        -72.1068   27.2901  -73.2320 C.3       8 UNK        -0.1976 
     32 N         -71.8963   26.1386  -75.3903 N.am      8 UNK        -0.4313 
     33 C         -71.1148   25.6900  -76.3831 C.2       8 UNK         0.5041 
     34 O         -70.1029   26.2717  -76.7767 O.2       8 UNK        -0.5577 
     35 CA        -71.5290   24.3686  -77.0602 C.3       7 UNK         0.0284 
     36 CB        -70.8521   23.1740  -76.3687 C.3       7 UNK        -0.1958 
     37 N         -72.9798   24.1641  -77.0718 N.am      7 UNK        -0.4454 
     38 C         -73.8446   24.8884  -77.7961 C.2       7 UNK         0.5089 
     39 O         -73.5008   25.7158  -78.6391 O.2       7 UNK        -0.5125 
     40 CA        -75.3465   24.6814  -77.5187 C.3       6 UNK         0.0408 
     41 CB        -75.9894   23.8377  -78.6299 C.3       6 UNK        -0.1791 
     42 N         -75.6580   24.0767  -76.2175 N.am      6 UNK        -0.4762 
     43 C         -75.3641   24.5952  -75.0175 C.2       6 UNK         0.5007 
     44 O         -74.7268   25.6410  -74.8770 O.2       6 UNK        -0.5032 
     45 CA        -75.8452   23.8062  -73.7817 C.3       5 UNK         0.0783 
     46 C46       -75.3091   24.4103  -72.4587 C.3       11 UNK        -0.0857 
     47 S47       -75.8428   23.4522  -70.9977 S.3       11 UNK        -0.2512 
     48 C48       -75.4364   24.5849  -69.6254 C.3       11 UNK         0.0225 
     49 N         -77.3060   23.6808  -73.7691 N.am      5 UNK        -0.4615 
     50 C         -78.0228   22.8179  -74.4969 C.2       4 UNK         0.5053 
     51 O         -77.5318   22.0657  -75.3402 O.2       4 UNK        -0.5105 
     52 CA        -79.5323   22.7772  -74.2423 C.3       4 UNK         0.0263 
     53 CB        -79.9270   23.0955  -72.7853 C.3       4 UNK        -0.1981 
     54 N         -80.2003   23.6979  -75.1579 N.am      4 UNK        -0.4224 
     55 C         -81.3686   23.4441  -75.7656 C.2       3 UNK         0.4895 
     56 O         -82.0007   22.3976  -75.6121 O.2       3 UNK        -0.5091 
     57 CA        -81.9650   24.5273  -76.6865 C.3       3 UNK         0.0250 
     58 CB        -83.1673   25.2031  -76.0056 C.3       3 UNK        -0.1996 
     59 N         -81.0111   25.5614  -77.0864 N.am      3 UNK        -0.4254 
     60 C         -80.0081   25.3956  -77.9586 C.2       2 UNK         0.5004 
     61 O         -79.8160   24.3579  -78.5918 O.2       2 UNK        -0.5226 
     62 CA        -79.0443   26.5838  -78.1427 C.3       2 UNK         0.0269 
     63 CB        -79.3527   27.3327  -79.4490 C.3       2 UNK        -0.1926 
     64 N         -79.0360   27.5431  -77.0280 N.am      2 UNK        -0.4687 
     65 C         -78.6536   27.2587  -75.7736 C.2       1 UNK         0.5165 
     66 O         -78.3304   26.1275  -75.4135 O.2       1 UNK        -0.5079 
     67 H67       -79.2990   32.4154  -74.3133 H         1 UNK         0.0900 
     68 H68       -78.3924   31.0765  -73.6290 H         1 UNK         0.0900 
     69 H69       -78.2839   31.4346  -75.3631 H         1 UNK         0.0900 
     70 H70       -80.7518   28.5703  -75.0421 H         1 UNK         0.2959 
     71 H71       -77.8698   29.0734  -75.1157 H         1 UNK         0.1079 
     72 H72       -78.1505   28.9325  -72.7355 H         1 UNK         0.0837 
     73 H73       -77.3992   27.4642  -73.2731 H         1 UNK         0.0837 
     74 H74       -80.0374   26.9681  -70.0749 H         1 UNK         0.0685 
     75 H75       -79.7184   28.6041  -70.5999 H         1 UNK         0.0685 
     76 H76       -78.0345   25.2626  -70.2021 H         1 UNK         0.1434 
     77 H77       -74.1816   26.9945  -69.4389 H         1 UNK         0.1329 
     78 H78       -77.5444   29.5194  -70.2544 H         1 UNK         0.1335 
     79 H79       -74.0778   29.4051  -68.9715 H         1 UNK         0.0680 
     80 H80       -75.4326   30.4558  -69.2890 H         1 UNK         0.0680 
     81 H81       -75.5808   31.9741  -71.4182 H         1 UNK         0.1032 
     82 H82       -76.3725   30.5321  -71.9778 H         1 UNK         0.1032 
     83 H83       -76.0570   32.0055  -73.8451 H         1 UNK         0.0461 
     84 H84       -72.7994   31.2904  -74.7681 H         1 UNK         0.3453 
     85 H85       -72.1851   32.8898  -74.4236 H         1 UNK         0.3453 
     86 H86       -74.6566   29.4627  -73.9090 H         1 UNK         0.2984 
     87 H87       -75.7672   28.3521  -76.4319 H         1 UNK         0.0554 
     88 H88       -75.2559   29.6919  -78.4427 H         1 UNK         0.0847 
     89 H89       -74.2234   28.2762  -78.4006 H         1 UNK         0.0847 
     90 H90       -73.5748   29.8525  -77.9551 H         1 UNK         0.0847 
     91 H91       -74.1526   27.2085  -75.4698 H         1 UNK         0.3141 
     92 H92       -70.6910   27.7474  -74.7757 H         1 UNK         0.0743 
     93 H93       -71.4823   26.5470  -72.7360 H         1 UNK         0.0784 
     94 H94       -71.9622   28.2351  -72.7066 H         1 UNK         0.0784 
     95 H95       -73.1482   26.9973  -73.0918 H         1 UNK         0.0784 
     96 H96       -72.7404   25.6233  -75.1681 H         1 UNK         0.3213 
     97 H97       -71.1831   24.4062  -78.0957 H         1 UNK         0.0855 
     98 H98       -71.1677   23.0740  -75.3294 H         1 UNK         0.0814 
     99 H99       -69.7671   23.2886  -76.3693 H         1 UNK         0.0814 
    100 H100      -71.0769   22.2384  -76.8812 H         1 UNK         0.0814 
    101 H101      -73.3558   23.4804  -76.4315 H         1 UNK         0.3105 
    102 H102      -75.8068   25.6712  -77.5290 H         1 UNK         0.0547 
    103 H103      -75.5697   22.8317  -78.6651 H         1 UNK         0.0837 
    104 H104      -75.8305   24.2925  -79.6087 H         1 UNK         0.0837 
    105 H105      -77.0663   23.7453  -78.4882 H         1 UNK         0.0837 
    106 H106      -76.2238   23.2323  -76.2259 H         1 UNK         0.3020 
    107 H107      -75.4209   22.8035  -73.8721 H         1 UNK         0.1245 
    108 H108      -75.6478   25.4430  -72.3606 H         1 UNK         0.0781 
    109 H109      -74.2179   24.4435  -72.4619 H         1 UNK         0.0781 
    110 H110      -74.3502   24.6467  -69.5425 H         1 UNK         0.0836 
    111 H111      -75.7917   24.1487  -68.6910 H         1 UNK         0.0836 
    112 H112      -77.7930   24.3037  -73.1420 H         1 UNK         0.3022 
    113 H113      -79.8422   21.7515  -74.4544 H         1 UNK         0.0747 
    114 H114      -80.9869   22.9026  -72.6186 H         1 UNK         0.0793 
    115 H115      -79.3722   22.4727  -72.0821 H         1 UNK         0.0793 
    116 H116      -79.7402   24.1364  -72.5245 H         1 UNK         0.0793 
    117 H117      -79.7046   24.5619  -75.3573 H         1 UNK         0.3047 
    118 H118      -82.3199   24.0247  -77.5890 H         1 UNK         0.0822 
    119 H119      -83.6478   25.9229  -76.6686 H         1 UNK         0.0807 
    120 H120      -82.8739   25.7262  -75.0944 H         1 UNK         0.0807 
    121 H121      -83.9240   24.4675  -75.7284 H         1 UNK         0.0807 
    122 H122      -81.0937   26.4561  -76.6285 H         1 UNK         0.2946 
    123 H123      -78.0412   26.1615  -78.2218 H         1 UNK         0.1144 
    124 H124      -78.6136   28.1096  -79.6457 H         1 UNK         0.0793 
    125 H125      -80.3370   27.8018  -79.4227 H         1 UNK         0.0793 
    126 H126      -79.3383   26.6528  -80.3022 H         1 UNK         0.0793 
    127 H127      -79.3168   28.4897  -77.2436 H         1 UNK         0.2896 
@<TRIPOS>BOND
     1    1    2 1    
     2    1   67 1    
     3    1   68 1    
     4    1   69 1    
     5    2    3 2    
     6    2    4 am   BACKBONE|DICT|INTERRES
     7    4    5 1    
     8    4   70 1    
     9    5    6 1    
    10    5   65 1    
    11    5   71 1    
    12    6    7 1    
    13    6   72 1    
    14    6   73 1    
    15    7    8 1    
    16    8    9 1    
    17    8   74 1    
    18    8   75 1    
    19    9   10 ar   
    20    9   14 ar   
    21   10   11 ar   
    22   10   76 1    
    23   11   12 ar   
    24   11   48 1    
    25   12   13 ar   
    26   12   77 1    
    27   13   14 ar   
    28   13   15 1    
    29   14   78 1    
    30   15   16 1    
    31   15   79 1    
    32   15   80 1    
    33   16   17 1    
    34   17   18 1    
    35   17   81 1    
    36   17   82 1    
    37   18   19 1    
    38   18   22 1    
    39   18   83 1    
    40   19   20 am   BACKBONE|DICT|INTERRES
    41   19   21 2    
    42   20   84 1    
    43   20   85 1    
    44   22   23 am   BACKBONE|DICT|INTERRES
    45   22   86 1    
    46   23   24 2    
    47   23   25 1    
    48   25   26 1    
    49   25   27 1    
    50   25   87 1    
    51   26   88 1    
    52   26   89 1    
    53   26   90 1    
    54   27   28 am   BACKBONE|DICT|INTERRES
    55   27   91 1    
    56   28   29 2    
    57   28   30 1    
    58   30   31 1    
    59   30   32 1    
    60   30   92 1    
    61   31   93 1    
    62   31   94 1    
    63   31   95 1    
    64   32   33 am   BACKBONE|DICT|INTERRES
    65   32   96 1    
    66   33   34 2    
    67   33   35 1    
    68   35   36 1    
    69   35   37 1    
    70   35   97 1    
    71   36   98 1    
    72   36   99 1    
    73   36  100 1    
    74   37   38 am   BACKBONE|DICT|INTERRES
    75   37  101 1    
    76   38   39 2    
    77   38   40 1    
    78   40   41 1    
    79   40   42 1    
    80   40  102 1    
    81   41  103 1    
    82   41  104 1    
    83   41  105 1    
    84   42   43 am   BACKBONE|DICT|INTERRES
    85   42  106 1    
    86   43   44 2    
    87   43   45 1    
    88   45   46 1    
    89   45   49 1    
    90   45  107 1    
    91   46   47 1    
    92   46  108 1    
    93   46  109 1    
    94   47   48 1    
    95   48  110 1    
    96   48  111 1    
    97   49   50 am   BACKBONE|DICT|INTERRES
    98   49  112 1    
    99   50   51 2    
   100   50   52 1    
   101   52   53 1    
   102   52   54 1    
   103   52  113 1    
   104   53  114 1    
   105   53  115 1    
   106   53  116 1    
   107   54   55 am   BACKBONE|DICT|INTERRES
   108   54  117 1    
   109   55   56 2    
   110   55   57 1    
   111   57   58 1    
   112   57   59 1    
   113   57  118 1    
   114   58  119 1    
   115   58  120 1    
   116   58  121 1    
   117   59   60 am   BACKBONE|DICT|INTERRES
   118   59  122 1    
   119   60   61 2    
   120   60   62 1    
   121   62   63 1    
   122   62   64 1    
   123   62  123 1    
   124   63  124 1    
   125   63  125 1    
   126   63  126 1    
   127   64   65 am   BACKBONE|DICT|INTERRES
   128   64  127 1    
   129   65   66 2    
@<TRIPOS>SUBSTRUCTURE
     1 UNK         1 GROUP             0       ****    0 ROOT    
