@<TRIPOS>MOLECULE
3R135
127   129    1
SMALL
USER_CHARGES


@<TRIPOS>ATOM
      1 CA        -80.4951   25.3688  -69.3632 C.3       0 UNK        -0.1998 
      2 C         -81.3448   25.9877  -70.4631 C.2       0 UNK         0.4909 
      3 O         -82.5547   26.1371  -70.2873 O.2       0 UNK        -0.5240 
      4 N         -80.7179   26.3416  -71.5895 N.am      1 UNK        -0.4739 
      5 CA        -81.3534   26.9002  -72.7860 C.3       1 UNK         0.0864 
      6 C6        -80.9598   28.3829  -73.0401 C.3       11 UNK        -0.0881 
      7 S7        -81.4603   29.4781  -71.6620 S.3       11 UNK        -0.2682 
      8 C8        -80.2243   30.8259  -71.7404 C.3       11 UNK         0.0289 
      9 C9        -78.7877   30.4729  -71.3405 C.ar      11 UNK        -0.0687 
     10 C10       -78.3839   29.1747  -71.0077 C.ar      11 UNK        -0.0823 
     11 C11       -77.0415   28.8763  -70.7577 C.ar      11 UNK        -0.0830 
     12 C12       -76.1046   29.9125  -70.7439 C.ar      11 UNK        -0.1021 
     13 C13       -76.4934   31.2234  -71.0306 C.ar      11 UNK        -0.0753 
     14 C14       -77.8305   31.4926  -71.3388 C.ar      11 UNK        -0.0933 
     15 C15       -75.4733   32.3518  -71.0157 C.3       11 UNK         0.0166 
     16 S16       -74.9039   32.7675  -72.6937 S.3       11 UNK        -0.2615 
     17 C17       -73.6505   31.4766  -73.0141 C.3       11 UNK        -0.0865 
     18 CA        -74.1806   30.2312  -73.7735 C.3       10 UNK         0.0862 
     19 C         -74.7513   30.5510  -75.1789 C.2       10 UNK         0.5551 
     20 N         -76.0624   30.7072  -75.3000 N.am      10 UNK        -0.7319 
     21 O         -74.0110   30.6692  -76.1542 O.2       10 UNK        -0.5018 
     22 N         -73.1353   29.2184  -73.9159 N.am      10 UNK        -0.4509 
     23 C         -72.7860   28.3002  -73.0090 C.2       10 UNK         0.4899 
     24 O         -73.2329   28.2729  -71.8627 O.2       10 UNK        -0.4839 
     25 CA        -71.7726   27.2283  -73.4559 C.3       9 UNK         0.0222 
     26 CB        -72.1194   25.8308  -72.9100 C.3       9 UNK        -0.1966 
     27 N         -71.6692   27.1578  -74.9186 N.am      9 UNK        -0.4218 
     28 C         -70.5273   27.2387  -75.6140 C.2       9 UNK         0.5020 
     29 O         -69.4192   27.3422  -75.0832 O.2       9 UNK        -0.5274 
     30 CA        -70.6273   27.2497  -77.1550 C.3       8 UNK         0.0270 
     31 CB        -69.3101   26.8221  -77.8389 C.3       8 UNK        -0.1976 
     32 N         -71.7580   26.4989  -77.7149 N.am      8 UNK        -0.4313 
     33 C         -72.0206   25.1887  -77.6124 C.2       8 UNK         0.5041 
     34 O         -71.3590   24.4103  -76.9231 O.2       8 UNK        -0.5577 
     35 CA        -73.2183   24.6654  -78.4413 C.3       7 UNK         0.0284 
     36 CB        -73.4352   23.1504  -78.2697 C.3       7 UNK        -0.1958 
     37 N         -74.4731   25.3582  -78.1324 N.am      7 UNK        -0.4454 
     38 C         -74.7728   26.6268  -78.4451 C.2       7 UNK         0.5089 
     39 O         -74.0583   27.3344  -79.1570 O.2       7 UNK        -0.5125 
     40 CA        -76.0343   27.2396  -77.8060 C.3       6 UNK         0.0408 
     41 CB        -77.2015   27.2329  -78.8014 C.3       6 UNK        -0.1791 
     42 N         -76.4393   26.6131  -76.5378 N.am      6 UNK        -0.4762 
     43 C         -75.6599   26.5810  -75.4428 C.2       6 UNK         0.5007 
     44 O         -74.5137   27.0269  -75.4243 O.2       6 UNK        -0.5032 
     45 CA        -76.2140   25.9201  -74.1697 C.3       5 UNK         0.0783 
     46 C46       -77.0157   26.9220  -73.3154 C.3       11 UNK        -0.0857 
     47 S47       -77.3887   26.2364  -71.6634 S.3       11 UNK        -0.2512 
     48 C48       -76.5887   27.4351  -70.5353 C.3       11 UNK         0.0225 
     49 N         -76.9768   24.7147  -74.4960 N.am      5 UNK        -0.4615 
     50 C         -76.4085   23.5149  -74.6685 C.2       4 UNK         0.5053 
     51 O         -75.2068   23.2939  -74.5178 O.2       4 UNK        -0.5105 
     52 CA        -77.3314   22.3693  -75.1104 C.3       4 UNK         0.0263 
     53 CB        -78.1390   21.8311  -73.9179 C.3       4 UNK        -0.1981 
     54 N         -78.2448   22.7535  -76.1876 N.am      4 UNK        -0.4224 
     55 C         -77.8739   23.1965  -77.3986 C.2       3 UNK         0.4895 
     56 O         -76.7048   23.3317  -77.7570 O.2       3 UNK        -0.5091 
     57 CA        -79.0011   23.5678  -78.3764 C.3       3 UNK         0.0250 
     58 CB        -79.3594   22.3614  -79.2588 C.3       3 UNK        -0.1996 
     59 N         -80.2140   24.0667  -77.7232 N.am      3 UNK        -0.4254 
     60 C         -80.2973   25.1543  -76.9425 C.2       2 UNK         0.5004 
     61 O         -79.3393   25.8925  -76.6954 O.2       2 UNK        -0.5226 
     62 CA        -81.6933   25.4589  -76.3538 C.3       2 UNK         0.0269 
     63 CB        -82.5419   24.1867  -76.1192 C.3       2 UNK        -0.1926 
     64 N         -81.6767   26.2589  -75.1215 N.am      2 UNK        -0.4687 
     65 C         -81.0135   25.9930  -73.9861 C.2       1 UNK         0.5165 
     66 O         -80.1999   25.0707  -73.8596 O.2       1 UNK        -0.5079 
     67 H67       -80.4867   26.0171  -68.4874 H         1 UNK         0.0900 
     68 H68       -80.9056   24.4030  -69.0697 H         1 UNK         0.0900 
     69 H69       -79.4642   25.2142  -69.6805 H         1 UNK         0.0900 
     70 H70       -79.7386   26.1110  -71.7089 H         1 UNK         0.2959 
     71 H71       -82.4391   26.8538  -72.6757 H         1 UNK         0.1079 
     72 H72       -81.4420   28.7631  -73.9420 H         1 UNK         0.0837 
     73 H73       -79.8879   28.4720  -73.2179 H         1 UNK         0.0837 
     74 H74       -80.5725   31.6308  -71.0916 H         1 UNK         0.0685 
     75 H75       -80.2192   31.2294  -72.7540 H         1 UNK         0.0685 
     76 H76       -79.1015   28.3716  -70.9809 H         1 UNK         0.1434 
     77 H77       -75.0655   29.6963  -70.5350 H         1 UNK         0.1329 
     78 H78       -78.1248   32.5037  -71.5862 H         1 UNK         0.1335 
     79 H79       -74.6222   32.1011  -70.3808 H         1 UNK         0.0680 
     80 H80       -75.9270   33.2398  -70.5729 H         1 UNK         0.0680 
     81 H81       -73.2123   31.1706  -72.0632 H         1 UNK         0.1032 
     82 H82       -72.8348   31.9337  -73.5772 H         1 UNK         0.1032 
     83 H83       -74.9880   29.7854  -73.1933 H         1 UNK         0.0461 
     84 H84       -76.4485   30.9264  -76.2041 H         1 UNK         0.3453 
     85 H85       -76.6646   30.6567  -74.4937 H         1 UNK         0.3453 
     86 H86       -72.7461   29.1589  -74.8469 H         1 UNK         0.2984 
     87 H87       -70.8183   27.5305  -73.0208 H         1 UNK         0.0554 
     88 H88       -72.2160   25.8380  -71.8236 H         1 UNK         0.0847 
     89 H89       -71.3407   25.1098  -73.1588 H         1 UNK         0.0847 
     90 H90       -73.0560   25.4584  -73.3231 H         1 UNK         0.0847 
     91 H91       -72.5556   27.0624  -75.4100 H         1 UNK         0.3141 
     92 H92       -70.8067   28.2914  -77.4249 H         1 UNK         0.0743 
     93 H93       -68.4844   27.4725  -77.5476 H         1 UNK         0.0784 
     94 H94       -69.0310   25.8022  -77.5719 H         1 UNK         0.0784 
     95 H95       -69.3909   26.8746  -78.9247 H         1 UNK         0.0784 
     96 H96       -72.4078   27.0379  -78.2845 H         1 UNK         0.3213 
     97 H97       -72.9793   24.8474  -79.4912 H         1 UNK         0.0855 
     98 H98       -73.7074   22.8983  -77.2435 H         1 UNK         0.0814 
     99 H99       -72.5318   22.5917  -78.5176 H         1 UNK         0.0814 
    100 H100      -74.2278   22.7869  -78.9240 H         1 UNK         0.0814 
    101 H101      -75.1464   24.8373  -77.5818 H         1 UNK         0.3105 
    102 H102      -75.7998   28.2820  -77.5795 H         1 UNK         0.0547 
    103 H103      -76.9458   27.7909  -79.7030 H         1 UNK         0.0837 
    104 H104      -78.0934   27.6943  -78.3774 H         1 UNK         0.0837 
    105 H105      -77.4551   26.2215  -79.1102 H         1 UNK         0.0837 
    106 H106      -77.3838   26.2389  -76.4943 H         1 UNK         0.3020 
    107 H107      -75.3452   25.6308  -73.5752 H         1 UNK         0.1245 
    108 H108      -77.9519   27.1860  -73.8092 H         1 UNK         0.0781 
    109 H109      -76.4565   27.8517  -73.2002 H         1 UNK         0.0781 
    110 H110      -75.5079   27.3506  -70.6578 H         1 UNK         0.0836 
    111 H111      -76.8076   27.1517  -69.5052 H         1 UNK         0.0836 
    112 H112      -77.9777   24.8178  -74.6153 H         1 UNK         0.3022 
    113 H113      -76.6993   21.5631  -75.4887 H         1 UNK         0.0747 
    114 H114      -78.7275   20.9573  -74.1982 H         1 UNK         0.0793 
    115 H115      -77.4779   21.5278  -73.1048 H         1 UNK         0.0793 
    116 H116      -78.8219   22.5828  -73.5189 H         1 UNK         0.0793 
    117 H117      -79.2319   22.7012  -75.9840 H         1 UNK         0.3047 
    118 H118      -78.6292   24.3574  -79.0281 H         1 UNK         0.0822 
    119 H119      -80.0903   22.6294  -80.0220 H         1 UNK         0.0807 
    120 H120      -79.7701   21.5380  -78.6729 H         1 UNK         0.0807 
    121 H121      -78.4774   21.9830  -79.7780 H         1 UNK         0.0807 
    122 H122      -81.0548   23.5287  -77.8754 H         1 UNK         0.2946 
    123 H123      -82.2022   26.0673  -77.1035 H         1 UNK         0.1144 
    124 H124      -82.0345   23.4776  -75.4635 H         1 UNK         0.0793 
    125 H125      -82.7736   23.6730  -77.0528 H         1 UNK         0.0793 
    126 H126      -83.4987   24.4325  -75.6578 H         1 UNK         0.0793 
    127 H127      -82.2850   27.0655  -75.1335 H         1 UNK         0.2896 
@<TRIPOS>BOND
     1    1    2 1    
     2    1   67 1    
     3    1   68 1    
     4    1   69 1    
     5    2    3 2    
     6    2    4 am   BACKBONE|DICT|INTERRES
     7    4    5 1    
     8    4   70 1    
     9    5    6 1    
    10    5   65 1    
    11    5   71 1    
    12    6    7 1    
    13    6   72 1    
    14    6   73 1    
    15    7    8 1    
    16    8    9 1    
    17    8   74 1    
    18    8   75 1    
    19    9   10 ar   
    20    9   14 ar   
    21   10   11 ar   
    22   10   76 1    
    23   11   12 ar   
    24   11   48 1    
    25   12   13 ar   
    26   12   77 1    
    27   13   14 ar   
    28   13   15 1    
    29   14   78 1    
    30   15   16 1    
    31   15   79 1    
    32   15   80 1    
    33   16   17 1    
    34   17   18 1    
    35   17   81 1    
    36   17   82 1    
    37   18   19 1    
    38   18   22 1    
    39   18   83 1    
    40   19   20 am   BACKBONE|DICT|INTERRES
    41   19   21 2    
    42   20   84 1    
    43   20   85 1    
    44   22   23 am   BACKBONE|DICT|INTERRES
    45   22   86 1    
    46   23   24 2    
    47   23   25 1    
    48   25   26 1    
    49   25   27 1    
    50   25   87 1    
    51   26   88 1    
    52   26   89 1    
    53   26   90 1    
    54   27   28 am   BACKBONE|DICT|INTERRES
    55   27   91 1    
    56   28   29 2    
    57   28   30 1    
    58   30   31 1    
    59   30   32 1    
    60   30   92 1    
    61   31   93 1    
    62   31   94 1    
    63   31   95 1    
    64   32   33 am   BACKBONE|DICT|INTERRES
    65   32   96 1    
    66   33   34 2    
    67   33   35 1    
    68   35   36 1    
    69   35   37 1    
    70   35   97 1    
    71   36   98 1    
    72   36   99 1    
    73   36  100 1    
    74   37   38 am   BACKBONE|DICT|INTERRES
    75   37  101 1    
    76   38   39 2    
    77   38   40 1    
    78   40   41 1    
    79   40   42 1    
    80   40  102 1    
    81   41  103 1    
    82   41  104 1    
    83   41  105 1    
    84   42   43 am   BACKBONE|DICT|INTERRES
    85   42  106 1    
    86   43   44 2    
    87   43   45 1    
    88   45   46 1    
    89   45   49 1    
    90   45  107 1    
    91   46   47 1    
    92   46  108 1    
    93   46  109 1    
    94   47   48 1    
    95   48  110 1    
    96   48  111 1    
    97   49   50 am   BACKBONE|DICT|INTERRES
    98   49  112 1    
    99   50   51 2    
   100   50   52 1    
   101   52   53 1    
   102   52   54 1    
   103   52  113 1    
   104   53  114 1    
   105   53  115 1    
   106   53  116 1    
   107   54   55 am   BACKBONE|DICT|INTERRES
   108   54  117 1    
   109   55   56 2    
   110   55   57 1    
   111   57   58 1    
   112   57   59 1    
   113   57  118 1    
   114   58  119 1    
   115   58  120 1    
   116   58  121 1    
   117   59   60 am   BACKBONE|DICT|INTERRES
   118   59  122 1    
   119   60   61 2    
   120   60   62 1    
   121   62   63 1    
   122   62   64 1    
   123   62  123 1    
   124   63  124 1    
   125   63  125 1    
   126   63  126 1    
   127   64   65 am   BACKBONE|DICT|INTERRES
   128   64  127 1    
   129   65   66 2    
@<TRIPOS>SUBSTRUCTURE
     1 UNK         1 GROUP             0       ****    0 ROOT    
