@<TRIPOS>MOLECULE
3R135
127   129    1
SMALL
USER_CHARGES


@<TRIPOS>ATOM
      1 CA        -76.0155   22.4905  -75.1436 C.3       0 UNK        -0.1998 
      2 C         -77.0280   22.4334  -74.0131 C.2       0 UNK         0.4909 
      3 O         -77.7423   21.4395  -73.8800 O.2       0 UNK        -0.5240 
      4 N         -77.0952   23.4902  -73.1958 N.am      1 UNK        -0.4739 
      5 CA        -78.0769   23.6453  -72.1218 C.3       1 UNK         0.0864 
      6 C6        -77.5852   24.6116  -71.0143 C.3       11 UNK        -0.0881 
      7 S7        -77.0131   26.2387  -71.6170 S.3       11 UNK        -0.2682 
      8 C8        -78.3519   27.3123  -71.0231 C.3       11 UNK         0.0289 
      9 C9        -78.1066   28.7531  -71.4351 C.ar      11 UNK        -0.0687 
     10 C10       -78.7514   29.2865  -72.5538 C.ar      11 UNK        -0.0823 
     11 C11       -78.5192   30.6103  -72.9458 C.ar      11 UNK        -0.0830 
     12 C12       -77.6408   31.4006  -72.1970 C.ar      11 UNK        -0.1021 
     13 C13       -76.9981   30.8795  -71.0699 C.ar      11 UNK        -0.0753 
     14 C14       -77.2350   29.5550  -70.6941 C.ar      11 UNK        -0.0933 
     15 C15       -76.0616   31.7475  -70.2429 C.3       11 UNK         0.0166 
     16 S16       -74.3142   31.3391  -70.5440 S.3       11 UNK        -0.2615 
     17 C17       -74.0725   31.9599  -72.2455 C.3       11 UNK        -0.0865 
     18 CA        -74.0421   30.8321  -73.3203 C.3       10 UNK         0.0862 
     19 C         -73.9363   31.4073  -74.7665 C.2       10 UNK         0.5551 
     20 N         -73.2085   30.7796  -75.6815 N.am      10 UNK        -0.7319 
     21 O         -74.5459   32.4286  -75.0738 O.2       10 UNK        -0.5018 
     22 N         -73.0783   29.7599  -73.0113 N.am      10 UNK        -0.4509 
     23 C         -71.7484   29.8883  -72.8990 C.2       10 UNK         0.4899 
     24 O         -71.1439   30.9534  -73.0269 O.2       10 UNK        -0.4839 
     25 CA        -70.9411   28.6118  -72.5890 C.3       9 UNK         0.0222 
     26 CB        -70.5561   28.5768  -71.1006 C.3       9 UNK        -0.1966 
     27 N         -71.6224   27.3589  -72.9379 N.am      9 UNK        -0.4218 
     28 C         -71.9538   26.9824  -74.1806 C.2       9 UNK         0.5020 
     29 O         -71.7005   27.6578  -75.1820 O.2       9 UNK        -0.5274 
     30 CA        -72.6840   25.6336  -74.3163 C.3       8 UNK         0.0270 
     31 CB        -73.8373   25.4861  -73.3055 C.3       8 UNK        -0.1976 
     32 N         -73.2360   25.5236  -75.6628 N.am      8 UNK        -0.4313 
     33 C         -73.0039   24.5378  -76.5382 C.2       8 UNK         0.5041 
     34 O         -72.3479   23.5297  -76.2710 O.2       8 UNK        -0.5577 
     35 CA        -73.5960   24.6872  -77.9555 C.3       7 UNK         0.0284 
     36 CB        -74.6694   23.6232  -78.2366 C.3       7 UNK        -0.1958 
     37 N         -74.1732   26.0108  -78.1934 N.am      7 UNK        -0.4454 
     38 C         -73.4665   27.1028  -78.5105 C.2       7 UNK         0.5089 
     39 O         -72.2611   27.0877  -78.7605 O.2       7 UNK        -0.5125 
     40 CA        -74.2262   28.4408  -78.5517 C.3       6 UNK         0.0408 
     41 CB        -74.4321   28.8947  -80.0058 C.3       6 UNK        -0.1791 
     42 N         -75.5256   28.4299  -77.8687 N.am      6 UNK        -0.4762 
     43 C         -75.7197   28.2959  -76.5467 C.2       6 UNK         0.5007 
     44 O         -74.8236   28.0624  -75.7380 O.2       6 UNK        -0.5032 
     45 CA        -77.1782   28.4048  -76.0682 C.3       5 UNK         0.0783 
     46 C46       -77.6257   29.8900  -76.0642 C.3       11 UNK        -0.0857 
     47 S47       -79.3724   30.1012  -75.5804 S.3       11 UNK        -0.2512 
     48 C48       -79.2406   31.2188  -74.1451 C.3       11 UNK         0.0225 
     49 N         -78.0622   27.5585  -76.8784 N.am      5 UNK        -0.4615 
     50 C         -78.0342   26.2214  -76.9007 C.2       4 UNK         0.5053 
     51 O         -77.2366   25.5315  -76.2633 O.2       4 UNK        -0.5105 
     52 CA        -79.0493   25.5360  -77.8165 C.3       4 UNK         0.0263 
     53 CB        -78.3691   25.0200  -79.0989 C.3       4 UNK        -0.1981 
     54 N         -79.6628   24.4387  -77.0761 N.am      4 UNK        -0.4224 
     55 C         -80.8233   23.8488  -77.3929 C.2       3 UNK         0.4895 
     56 O         -81.4947   24.1393  -78.3835 O.2       3 UNK        -0.5091 
     57 CA        -81.3443   22.7824  -76.4240 C.3       3 UNK         0.0250 
     58 CB        -80.5188   21.4855  -76.5142 C.3       3 UNK        -0.1996 
     59 N         -81.3355   23.3071  -75.0619 N.am      3 UNK        -0.4254 
     60 C         -82.1230   22.9203  -74.0546 C.2       2 UNK         0.5004 
     61 O         -82.9731   22.0332  -74.1525 O.2       2 UNK        -0.5226 
     62 CA        -81.8963   23.6413  -72.7066 C.3       2 UNK         0.0269 
     63 CB        -82.8830   23.1839  -71.6156 C.3       2 UNK        -0.1926 
     64 N         -80.5260   23.4661  -72.2086 N.am      2 UNK        -0.4687 
     65 C         -79.4370   24.0595  -72.7164 C.2       1 UNK         0.5165 
     66 O         -79.4845   24.8823  -73.6364 O.2       1 UNK        -0.5079 
     67 H67       -75.6145   23.4956  -75.2683 H         1 UNK         0.0900 
     68 H68       -76.4864   22.1943  -76.0804 H         1 UNK         0.0900 
     69 H69       -75.1862   21.8121  -74.9460 H         1 UNK         0.0900 
     70 H70       -76.5438   24.3149  -73.3877 H         1 UNK         0.2959 
     71 H71       -78.2091   22.6674  -71.6525 H         1 UNK         0.1079 
     72 H72       -78.3536   24.7432  -70.2500 H         1 UNK         0.0837 
     73 H73       -76.7430   24.1517  -70.4948 H         1 UNK         0.0837 
     74 H74       -79.3048   26.9583  -71.4201 H         1 UNK         0.0685 
     75 H75       -78.4205   27.2448  -69.9363 H         1 UNK         0.0685 
     76 H76       -79.4337   28.6669  -73.1198 H         1 UNK         0.1434 
     77 H77       -77.4639   32.4281  -72.4849 H         1 UNK         0.1329 
     78 H78       -76.7341   29.1454  -69.8274 H         1 UNK         0.1335 
     79 H79       -76.2309   32.8070  -70.4418 H         1 UNK         0.0680 
     80 H80       -76.2775   31.6004  -69.1837 H         1 UNK         0.0680 
     81 H81       -73.1425   32.5298  -72.2683 H         1 UNK         0.1032 
     82 H82       -74.8594   32.6810  -72.4720 H         1 UNK         0.1032 
     83 H83       -75.0161   30.3420  -73.2971 H         1 UNK         0.0461 
     84 H84       -72.7571   29.9040  -75.4565 H         1 UNK         0.3453 
     85 H85       -73.1463   31.1615  -76.6106 H         1 UNK         0.3453 
     86 H86       -73.4760   28.8380  -72.9135 H         1 UNK         0.2984 
     87 H87       -70.0221   28.6608  -73.1768 H         1 UNK         0.0554 
     88 H88       -69.9090   27.7291  -70.8746 H         1 UNK         0.0847 
     89 H89       -71.4352   28.5130  -70.4577 H         1 UNK         0.0847 
     90 H90       -70.0129   29.4796  -70.8169 H         1 UNK         0.0847 
     91 H91       -71.8583   26.7462  -72.1705 H         1 UNK         0.3141 
     92 H92       -71.9478   24.8477  -74.1369 H         1 UNK         0.0743 
     93 H93       -74.5786   26.2771  -73.4291 H         1 UNK         0.0784 
     94 H94       -74.3445   24.5308  -73.4318 H         1 UNK         0.0784 
     95 H95       -73.4873   25.5168  -72.2736 H         1 UNK         0.0784 
     96 H96       -73.7272   26.3558  -75.9764 H         1 UNK         0.3213 
     97 H97       -72.7747   24.5265  -78.6574 H         1 UNK         0.0855 
     98 H98       -75.5691   23.7966  -77.6485 H         1 UNK         0.0814 
     99 H99       -74.3073   22.6215  -78.0010 H         1 UNK         0.0814 
    100 H100      -74.9564   23.6232  -79.2881 H         1 UNK         0.0814 
    101 H101      -75.1556   26.1238  -77.9875 H         1 UNK         0.3105 
    102 H102      -73.5964   29.1785  -78.0514 H         1 UNK         0.0547 
    103 H103      -73.4806   28.9495  -80.5369 H         1 UNK         0.0837 
    104 H104      -75.0725   28.2054  -80.5575 H         1 UNK         0.0837 
    105 H105      -74.8825   29.8862  -80.0538 H         1 UNK         0.0837 
    106 H106      -76.3359   28.5873  -78.4506 H         1 UNK         0.3020 
    107 H107      -77.2120   28.0322  -75.0408 H         1 UNK         0.1245 
    108 H108      -77.5063   30.3374  -77.0529 H         1 UNK         0.0781 
    109 H109      -76.9901   30.4721  -75.3938 H         1 UNK         0.0781 
    110 H110      -80.2462   31.5038  -73.8335 H         1 UNK         0.0836 
    111 H111      -78.7473   32.1374  -74.4672 H         1 UNK         0.0836 
    112 H112      -78.7651   28.0452  -77.4159 H         1 UNK         0.3022 
    113 H113      -79.8256   26.2556  -78.0861 H         1 UNK         0.0747 
    114 H114      -79.0968   24.6051  -79.7962 H         1 UNK         0.0793 
    115 H115      -77.8477   25.8247  -79.6190 H         1 UNK         0.0793 
    116 H116      -77.6379   24.2415  -78.8806 H         1 UNK         0.0793 
    117 H117      -79.1566   24.1659  -76.2426 H         1 UNK         0.3047 
    118 H118      -82.3756   22.5591  -76.7069 H         1 UNK         0.0822 
    119 H119      -80.9469   20.7002  -75.8910 H         1 UNK         0.0807 
    120 H120      -79.4873   21.6372  -76.1939 H         1 UNK         0.0807 
    121 H121      -80.4933   21.1088  -77.5375 H         1 UNK         0.0807 
    122 H122      -80.6706   24.0499  -74.8609 H         1 UNK         0.2946 
    123 H123      -82.0688   24.7058  -72.8829 H         1 UNK         0.1144 
    124 H124      -82.7467   23.7502  -70.6941 H         1 UNK         0.0793 
    125 H125      -82.7644   22.1254  -71.3806 H         1 UNK         0.0793 
    126 H126      -83.9154   23.3337  -71.9347 H         1 UNK         0.0793 
    127 H127      -80.4078   22.7803  -71.4763 H         1 UNK         0.2896 
@<TRIPOS>BOND
     1    1    2 1    
     2    1   67 1    
     3    1   68 1    
     4    1   69 1    
     5    2    3 2    
     6    2    4 am   BACKBONE|DICT|INTERRES
     7    4    5 1    
     8    4   70 1    
     9    5    6 1    
    10    5   65 1    
    11    5   71 1    
    12    6    7 1    
    13    6   72 1    
    14    6   73 1    
    15    7    8 1    
    16    8    9 1    
    17    8   74 1    
    18    8   75 1    
    19    9   10 ar   
    20    9   14 ar   
    21   10   11 ar   
    22   10   76 1    
    23   11   12 ar   
    24   11   48 1    
    25   12   13 ar   
    26   12   77 1    
    27   13   14 ar   
    28   13   15 1    
    29   14   78 1    
    30   15   16 1    
    31   15   79 1    
    32   15   80 1    
    33   16   17 1    
    34   17   18 1    
    35   17   81 1    
    36   17   82 1    
    37   18   19 1    
    38   18   22 1    
    39   18   83 1    
    40   19   20 am   BACKBONE|DICT|INTERRES
    41   19   21 2    
    42   20   84 1    
    43   20   85 1    
    44   22   23 am   BACKBONE|DICT|INTERRES
    45   22   86 1    
    46   23   24 2    
    47   23   25 1    
    48   25   26 1    
    49   25   27 1    
    50   25   87 1    
    51   26   88 1    
    52   26   89 1    
    53   26   90 1    
    54   27   28 am   BACKBONE|DICT|INTERRES
    55   27   91 1    
    56   28   29 2    
    57   28   30 1    
    58   30   31 1    
    59   30   32 1    
    60   30   92 1    
    61   31   93 1    
    62   31   94 1    
    63   31   95 1    
    64   32   33 am   BACKBONE|DICT|INTERRES
    65   32   96 1    
    66   33   34 2    
    67   33   35 1    
    68   35   36 1    
    69   35   37 1    
    70   35   97 1    
    71   36   98 1    
    72   36   99 1    
    73   36  100 1    
    74   37   38 am   BACKBONE|DICT|INTERRES
    75   37  101 1    
    76   38   39 2    
    77   38   40 1    
    78   40   41 1    
    79   40   42 1    
    80   40  102 1    
    81   41  103 1    
    82   41  104 1    
    83   41  105 1    
    84   42   43 am   BACKBONE|DICT|INTERRES
    85   42  106 1    
    86   43   44 2    
    87   43   45 1    
    88   45   46 1    
    89   45   49 1    
    90   45  107 1    
    91   46   47 1    
    92   46  108 1    
    93   46  109 1    
    94   47   48 1    
    95   48  110 1    
    96   48  111 1    
    97   49   50 am   BACKBONE|DICT|INTERRES
    98   49  112 1    
    99   50   51 2    
   100   50   52 1    
   101   52   53 1    
   102   52   54 1    
   103   52  113 1    
   104   53  114 1    
   105   53  115 1    
   106   53  116 1    
   107   54   55 am   BACKBONE|DICT|INTERRES
   108   54  117 1    
   109   55   56 2    
   110   55   57 1    
   111   57   58 1    
   112   57   59 1    
   113   57  118 1    
   114   58  119 1    
   115   58  120 1    
   116   58  121 1    
   117   59   60 am   BACKBONE|DICT|INTERRES
   118   59  122 1    
   119   60   61 2    
   120   60   62 1    
   121   62   63 1    
   122   62   64 1    
   123   62  123 1    
   124   63  124 1    
   125   63  125 1    
   126   63  126 1    
   127   64   65 am   BACKBONE|DICT|INTERRES
   128   64  127 1    
   129   65   66 2    
@<TRIPOS>SUBSTRUCTURE
     1 UNK         1 GROUP             0       ****    0 ROOT    
