@<TRIPOS>MOLECULE
3R135
127   129    1
SMALL
USER_CHARGES


@<TRIPOS>ATOM
      1 CA        -82.5516   22.4077  -72.1973 C.3       0 UNK        -0.1998 
      2 C         -82.0425   23.8221  -71.9597 C.2       0 UNK         0.4909 
      3 O         -81.1820   24.0171  -71.1018 O.2       0 UNK        -0.5240 
      4 N         -82.5832   24.7944  -72.7095 N.am      1 UNK        -0.4739 
      5 CA        -82.2249   26.2207  -72.7244 C.3       1 UNK         0.0864 
      6 C6        -82.2497   26.8747  -71.3143 C.3       11 UNK        -0.0881 
      7 S7        -82.4200   28.6948  -71.3450 S.3       11 UNK        -0.2682 
      8 C8        -81.1716   29.2201  -70.1238 C.3       11 UNK         0.0289 
      9 C9        -79.7426   29.0120  -70.6101 C.ar      11 UNK        -0.0687 
     10 C10       -79.0302   27.8701  -70.2299 C.ar      11 UNK        -0.0823 
     11 C11       -77.7153   27.6823  -70.6574 C.ar      11 UNK        -0.0830 
     12 C12       -77.1014   28.6633  -71.4352 C.ar      11 UNK        -0.1021 
     13 C13       -77.8026   29.7976  -71.8553 C.ar      11 UNK        -0.0753 
     14 C14       -79.1242   29.9688  -71.4242 C.ar      11 UNK        -0.0933 
     15 C15       -77.1564   30.8420  -72.7691 C.3       11 UNK         0.0166 
     16 S16       -76.0239   30.1427  -74.0299 S.3       11 UNK        -0.2615 
     17 C17       -74.4428   30.0613  -73.1135 C.3       11 UNK        -0.0865 
     18 CA        -73.2771   30.7475  -73.8716 C.3       10 UNK         0.0862 
     19 C         -72.1027   31.0782  -72.8995 C.2       10 UNK         0.5551 
     20 N         -70.9123   30.5095  -73.0494 N.am      10 UNK        -0.7319 
     21 O         -72.2793   31.8798  -71.9855 O.2       10 UNK        -0.5018 
     22 N         -72.8920   29.9681  -75.0594 N.am      10 UNK        -0.4509 
     23 C         -72.1455   30.4267  -76.0721 C.2       10 UNK         0.4899 
     24 O         -71.8072   31.6056  -76.1902 O.2       10 UNK        -0.4839 
     25 CA        -71.6873   29.3840  -77.1154 C.3       9 UNK         0.0222 
     26 CB        -70.4555   29.8504  -77.9191 C.3       9 UNK        -0.1966 
     27 N         -71.4526   28.0443  -76.5537 N.am      9 UNK        -0.4218 
     28 C         -70.6240   27.7146  -75.5472 C.2       9 UNK         0.5020 
     29 O         -69.9210   28.5332  -74.9535 O.2       9 UNK        -0.5274 
     30 CA        -70.5917   26.2462  -75.0817 C.3       8 UNK         0.0270 
     31 CB        -71.0317   26.1409  -73.6102 C.3       8 UNK        -0.1976 
     32 N         -71.4486   25.3787  -75.8927 N.am      8 UNK        -0.4313 
     33 C         -71.0382   24.6784  -76.9603 C.2       8 UNK         0.5041 
     34 O         -69.8653   24.6247  -77.3319 O.2       8 UNK        -0.5577 
     35 CA        -72.1135   23.9264  -77.7717 C.3       7 UNK         0.0284 
     36 CB        -72.1864   22.4555  -77.3315 C.3       7 UNK        -0.1958 
     37 N         -73.4510   24.5211  -77.6829 N.am      7 UNK        -0.4454 
     38 C         -73.7700   25.7642  -78.0699 C.2       7 UNK         0.5089 
     39 O         -72.9793   26.5320  -78.6167 O.2       7 UNK        -0.5125 
     40 CA        -75.1832   26.2669  -77.7310 C.3       6 UNK         0.0408 
     41 CB        -76.1109   26.0767  -78.9412 C.3       6 UNK        -0.1791 
     42 N         -75.7955   25.6496  -76.5478 N.am      6 UNK        -0.4762 
     43 C         -75.2776   25.5778  -75.3109 C.2       6 UNK         0.5007 
     44 O         -74.1504   25.9897  -75.0310 O.2       6 UNK        -0.5032 
     45 CA        -76.1357   24.9264  -74.2002 C.3       5 UNK         0.0783 
     46 C46       -76.3463   25.9090  -73.0264 C.3       11 UNK        -0.0857 
     47 S47       -77.1721   25.1344  -71.5928 S.3       11 UNK        -0.2512 
     48 C48       -76.9575   26.4103  -70.3081 C.3       11 UNK         0.0225 
     49 N         -77.4144   24.3986  -74.6927 N.am      5 UNK        -0.4615 
     50 C         -77.5631   23.2648  -75.3892 C.2       4 UNK         0.5053 
     51 O         -76.6299   22.5254  -75.7012 O.2       4 UNK        -0.5105 
     52 CA        -78.9887   22.9262  -75.8455 C.3       4 UNK         0.0263 
     53 CB        -79.7752   22.2535  -74.7095 C.3       4 UNK        -0.1981 
     54 N         -79.6939   24.1304  -76.2919 N.am      4 UNK        -0.4224 
     55 C         -79.5994   24.6411  -77.5288 C.2       3 UNK         0.4895 
     56 O         -78.9608   24.1110  -78.4377 O.2       3 UNK        -0.5091 
     57 CA        -80.3288   25.9683  -77.8093 C.3       3 UNK         0.0250 
     58 CB        -81.7427   25.6996  -78.3489 C.3       3 UNK        -0.1996 
     59 N         -80.4163   26.8434  -76.6384 N.am      3 UNK        -0.4254 
     60 C         -79.3726   27.4638  -76.0692 C.2       2 UNK         0.5004 
     61 O         -78.2313   27.4279  -76.5200 O.2       2 UNK        -0.5226 
     62 CA        -79.6371   28.2367  -74.7655 C.3       2 UNK         0.0269 
     63 CB        -79.8705   29.7231  -75.0791 C.3       2 UNK        -0.1926 
     64 N         -80.7658   27.7333  -73.9740 N.am      2 UNK        -0.4687 
     65 C         -80.9192   26.4841  -73.5123 C.2       1 UNK         0.5165 
     66 O         -80.1223   25.5734  -73.7571 O.2       1 UNK        -0.5079 
     67 H67       -81.7146   21.7288  -72.3577 H         1 UNK         0.0900 
     68 H68       -83.1091   22.0597  -71.3283 H         1 UNK         0.0900 
     69 H69       -83.2047   22.3487  -73.0678 H         1 UNK         0.0900 
     70 H70       -83.2785   24.5337  -73.3950 H         1 UNK         0.2959 
     71 H71       -83.0228   26.6845  -73.3071 H         1 UNK         0.1079 
     72 H72       -83.1021   26.4926  -70.7506 H         1 UNK         0.0837 
     73 H73       -81.3717   26.5811  -70.7430 H         1 UNK         0.0837 
     74 H74       -81.3265   30.2768  -69.9011 H         1 UNK         0.0685 
     75 H75       -81.3384   28.6880  -69.1858 H         1 UNK         0.0685 
     76 H76       -79.4982   27.1197  -69.6081 H         1 UNK         0.1434 
     77 H77       -76.0810   28.5083  -71.7433 H         1 UNK         0.1329 
     78 H78       -79.6783   30.8475  -71.7245 H         1 UNK         0.1335 
     79 H79       -77.9354   31.3876  -73.3032 H         1 UNK         0.0680 
     80 H80       -76.6353   31.5830  -72.1621 H         1 UNK         0.0680 
     81 H81       -74.5872   30.5166  -72.1319 H         1 UNK         0.1032 
     82 H82       -74.1959   29.0158  -72.9211 H         1 UNK         0.1032 
     83 H83       -73.6374   31.7160  -74.2242 H         1 UNK         0.0461 
     84 H84       -70.7236   29.8549  -73.8025 H         1 UNK         0.3453 
     85 H85       -70.1746   30.7484  -72.4066 H         1 UNK         0.3453 
     86 H86       -73.1345   28.9886  -75.0469 H         1 UNK         0.2984 
     87 H87       -72.5164   29.2763  -77.8161 H         1 UNK         0.0554 
     88 H88       -70.6609   30.7809  -78.4498 H         1 UNK         0.0847 
     89 H89       -70.1672   29.1112  -78.6665 H         1 UNK         0.0847 
     90 H90       -69.5953   30.0274  -77.2726 H         1 UNK         0.0847 
     91 H91       -71.9658   27.2993  -77.0124 H         1 UNK         0.3141 
     92 H92       -69.5555   25.9085  -75.1482 H         1 UNK         0.0743 
     93 H93       -72.0420   26.5227  -73.4595 H         1 UNK         0.0784 
     94 H94       -71.0080   25.1082  -73.2619 H         1 UNK         0.0784 
     95 H95       -70.3688   26.7148  -72.9612 H         1 UNK         0.0784 
     96 H96       -72.4390   25.3935  -75.6584 H         1 UNK         0.3213 
     97 H97       -71.8088   23.9576  -78.8200 H         1 UNK         0.0855 
     98 H98       -72.5138   22.3595  -76.2954 H         1 UNK         0.0814 
     99 H99       -71.2096   21.9759  -77.4102 H         1 UNK         0.0814 
    100 H100      -72.8751   21.8867  -77.9565 H         1 UNK         0.0814 
    101 H101      -74.1701   23.9686  -77.2373 H         1 UNK         0.3105 
    102 H102      -75.1052   27.3363  -77.5255 H         1 UNK         0.0547 
    103 H103      -75.6852   26.5304  -79.8374 H         1 UNK         0.0837 
    104 H104      -76.2807   25.0212  -79.1579 H         1 UNK         0.0837 
    105 H105      -77.0813   26.5443  -78.7773 H         1 UNK         0.0837 
    106 H106      -76.7486   25.3351  -76.6613 H         1 UNK         0.3020 
    107 H107      -75.5482   24.0846  -73.8265 H         1 UNK         0.1245 
    108 H108      -76.9440   26.7573  -73.3618 H         1 UNK         0.0781 
    109 H109      -75.3908   26.3123  -72.6850 H         1 UNK         0.0781 
    110 H110      -75.8954   26.6220  -70.1747 H         1 UNK         0.0836 
    111 H111      -77.3108   26.0145  -69.3548 H         1 UNK         0.0836 
    112 H112      -78.2442   24.9175  -74.4250 H         1 UNK         0.3022 
    113 H113      -78.9221   22.2182  -76.6746 H         1 UNK         0.0747 
    114 H114      -80.7943   22.0180  -75.0161 H         1 UNK         0.0793 
    115 H115      -79.3009   21.3179  -74.4105 H         1 UNK         0.0793 
    116 H116      -79.8274   22.8869  -73.8233 H         1 UNK         0.0793 
    117 H117      -80.1762   24.6603  -75.5741 H         1 UNK         0.3047 
    118 H118      -79.7634   26.4955  -78.5810 H         1 UNK         0.0822 
    119 H119      -82.2436   26.6263  -78.6297 H         1 UNK         0.0807 
    120 H120      -82.3665   25.1882  -77.6145 H         1 UNK         0.0807 
    121 H121      -81.7066   25.0707  -79.2397 H         1 UNK         0.0807 
    122 H122      -81.3234   26.9470  -76.2083 H         1 UNK         0.2946 
    123 H123      -78.7416   28.1489  -74.1472 H         1 UNK         0.1144 
    124 H124      -80.0275   30.3046  -74.1718 H         1 UNK         0.0793 
    125 H125      -80.7388   29.8687  -75.7228 H         1 UNK         0.0793 
    126 H126      -79.0073   30.1510  -75.5913 H         1 UNK         0.0793 
    127 H127      -81.4542   28.4206  -73.6987 H         1 UNK         0.2896 
@<TRIPOS>BOND
     1    1    2 1    
     2    1   67 1    
     3    1   68 1    
     4    1   69 1    
     5    2    3 2    
     6    2    4 am   BACKBONE|DICT|INTERRES
     7    4    5 1    
     8    4   70 1    
     9    5    6 1    
    10    5   65 1    
    11    5   71 1    
    12    6    7 1    
    13    6   72 1    
    14    6   73 1    
    15    7    8 1    
    16    8    9 1    
    17    8   74 1    
    18    8   75 1    
    19    9   10 ar   
    20    9   14 ar   
    21   10   11 ar   
    22   10   76 1    
    23   11   12 ar   
    24   11   48 1    
    25   12   13 ar   
    26   12   77 1    
    27   13   14 ar   
    28   13   15 1    
    29   14   78 1    
    30   15   16 1    
    31   15   79 1    
    32   15   80 1    
    33   16   17 1    
    34   17   18 1    
    35   17   81 1    
    36   17   82 1    
    37   18   19 1    
    38   18   22 1    
    39   18   83 1    
    40   19   20 am   BACKBONE|DICT|INTERRES
    41   19   21 2    
    42   20   84 1    
    43   20   85 1    
    44   22   23 am   BACKBONE|DICT|INTERRES
    45   22   86 1    
    46   23   24 2    
    47   23   25 1    
    48   25   26 1    
    49   25   27 1    
    50   25   87 1    
    51   26   88 1    
    52   26   89 1    
    53   26   90 1    
    54   27   28 am   BACKBONE|DICT|INTERRES
    55   27   91 1    
    56   28   29 2    
    57   28   30 1    
    58   30   31 1    
    59   30   32 1    
    60   30   92 1    
    61   31   93 1    
    62   31   94 1    
    63   31   95 1    
    64   32   33 am   BACKBONE|DICT|INTERRES
    65   32   96 1    
    66   33   34 2    
    67   33   35 1    
    68   35   36 1    
    69   35   37 1    
    70   35   97 1    
    71   36   98 1    
    72   36   99 1    
    73   36  100 1    
    74   37   38 am   BACKBONE|DICT|INTERRES
    75   37  101 1    
    76   38   39 2    
    77   38   40 1    
    78   40   41 1    
    79   40   42 1    
    80   40  102 1    
    81   41  103 1    
    82   41  104 1    
    83   41  105 1    
    84   42   43 am   BACKBONE|DICT|INTERRES
    85   42  106 1    
    86   43   44 2    
    87   43   45 1    
    88   45   46 1    
    89   45   49 1    
    90   45  107 1    
    91   46   47 1    
    92   46  108 1    
    93   46  109 1    
    94   47   48 1    
    95   48  110 1    
    96   48  111 1    
    97   49   50 am   BACKBONE|DICT|INTERRES
    98   49  112 1    
    99   50   51 2    
   100   50   52 1    
   101   52   53 1    
   102   52   54 1    
   103   52  113 1    
   104   53  114 1    
   105   53  115 1    
   106   53  116 1    
   107   54   55 am   BACKBONE|DICT|INTERRES
   108   54  117 1    
   109   55   56 2    
   110   55   57 1    
   111   57   58 1    
   112   57   59 1    
   113   57  118 1    
   114   58  119 1    
   115   58  120 1    
   116   58  121 1    
   117   59   60 am   BACKBONE|DICT|INTERRES
   118   59  122 1    
   119   60   61 2    
   120   60   62 1    
   121   62   63 1    
   122   62   64 1    
   123   62  123 1    
   124   63  124 1    
   125   63  125 1    
   126   63  126 1    
   127   64   65 am   BACKBONE|DICT|INTERRES
   128   64  127 1    
   129   65   66 2    
@<TRIPOS>SUBSTRUCTURE
     1 UNK         1 GROUP             0       ****    0 ROOT    
