@<TRIPOS>MOLECULE
3R135
127   129    1
SMALL
USER_CHARGES


@<TRIPOS>ATOM
      1 CA        -84.6151   29.0346  -72.6000 C.3       0 UNK        -0.1998 
      2 C         -83.2445   28.5442  -73.0407 C.2       0 UNK         0.4909 
      3 O         -82.7235   29.0086  -74.0547 O.2       0 UNK        -0.5240 
      4 N         -82.6609   27.5963  -72.2972 N.am      1 UNK        -0.4739 
      5 CA        -81.3307   27.0102  -72.5223 C.3       1 UNK         0.0864 
      6 C6        -80.7301   26.4794  -71.1918 C.3       11 UNK        -0.0881 
      7 S7        -80.4852   27.8136  -69.9678 S.3       11 UNK        -0.2682 
      8 C8        -78.6768   27.7718  -69.6892 C.3       11 UNK         0.0289 
      9 C9        -77.8063   28.1166  -70.9000 C.ar      11 UNK        -0.0687 
     10 C10       -78.2670   28.9193  -71.9516 C.ar      11 UNK        -0.0823 
     11 C11       -77.4539   29.1902  -73.0562 C.ar      11 UNK        -0.0830 
     12 C12       -76.1430   28.7118  -73.0761 C.ar      11 UNK        -0.1021 
     13 C13       -75.6586   27.9288  -72.0266 C.ar      11 UNK        -0.0753 
     14 C14       -76.4959   27.6279  -70.9481 C.ar      11 UNK        -0.0933 
     15 C15       -74.2360   27.3915  -72.0824 C.3       11 UNK         0.0166 
     16 S16       -73.1679   28.0585  -70.7675 S.3       11 UNK        -0.2615 
     17 C17       -73.2435   29.8650  -71.0544 C.3       11 UNK        -0.0865 
     18 CA        -71.9661   30.4814  -71.6865 C.3       10 UNK         0.0862 
     19 C         -70.6887   30.3446  -70.8076 C.2       10 UNK         0.5551 
     20 N         -69.5167   30.0863  -71.3775 N.am      10 UNK        -0.7319 
     21 O         -70.7512   30.5053  -69.5910 O.2       10 UNK        -0.5018 
     22 N         -71.7755   30.0682  -73.0874 N.am      10 UNK        -0.4509 
     23 C         -72.2247   30.7443  -74.1530 C.2       10 UNK         0.4899 
     24 O         -72.9247   31.7545  -74.0771 O.2       10 UNK        -0.4839 
     25 CA        -71.8037   30.2423  -75.5469 C.3       9 UNK         0.0222 
     26 CB        -70.6505   31.1006  -76.0936 C.3       9 UNK        -0.1966 
     27 N         -71.4020   28.8328  -75.5673 N.am      9 UNK        -0.4218 
     28 C         -72.2640   27.8097  -75.6019 C.2       9 UNK         0.5020 
     29 O         -73.4865   27.9477  -75.6315 O.2       9 UNK        -0.5274 
     30 CA        -71.6451   26.4079  -75.5723 C.3       8 UNK         0.0270 
     31 CB        -71.2035   26.0245  -74.1466 C.3       8 UNK        -0.1976 
     32 N         -72.5973   25.4170  -76.0725 N.am      8 UNK        -0.4313 
     33 C         -72.2493   24.2753  -76.6798 C.2       8 UNK         0.5041 
     34 O         -71.0810   23.9455  -76.8937 O.2       8 UNK        -0.5577 
     35 CA        -73.3761   23.3261  -77.1215 C.3       7 UNK         0.0284 
     36 CB        -73.8488   22.4632  -75.9405 C.3       7 UNK        -0.1958 
     37 N         -74.5221   24.0098  -77.7217 N.am      7 UNK        -0.4454 
     38 C         -74.5067   24.6384  -78.9063 C.2       7 UNK         0.5089 
     39 O         -73.5147   24.7163  -79.6316 O.2       7 UNK        -0.5125 
     40 CA        -75.8238   25.2894  -79.3615 C.3       6 UNK         0.0408 
     41 CB        -76.7378   24.2615  -80.0478 C.3       6 UNK        -0.1791 
     42 N         -76.5266   25.9038  -78.2357 N.am      6 UNK        -0.4762 
     43 C         -76.2173   27.1039  -77.7223 C.2       6 UNK         0.5007 
     44 O         -75.4229   27.8826  -78.2502 O.2       6 UNK        -0.5032 
     45 CA        -76.9108   27.5058  -76.4051 C.3       5 UNK         0.0783 
     46 C46       -78.0610   28.5078  -76.6856 C.3       11 UNK        -0.0857 
     47 S47       -79.1014   28.9332  -75.2456 S.3       11 UNK        -0.2512 
     48 C48       -78.0078   29.9802  -74.2318 C.3       11 UNK         0.0225 
     49 N         -77.3431   26.3373  -75.6321 N.am      5 UNK        -0.4615 
     50 C         -76.5167   25.5183  -74.9639 C.2       4 UNK         0.5053 
     51 O         -75.2937   25.6370  -74.9458 O.2       4 UNK        -0.5105 
     52 CA        -77.1557   24.3275  -74.2310 C.3       4 UNK         0.0263 
     53 CB        -77.5762   24.7490  -72.8184 C.3       4 UNK        -0.1981 
     54 N         -78.3035   23.7712  -74.9513 N.am      4 UNK        -0.4224 
     55 C         -78.2169   23.2138  -76.1694 C.2       3 UNK         0.4895 
     56 O         -77.1533   23.0643  -76.7714 O.2       3 UNK        -0.5091 
     57 CA        -79.5256   22.8007  -76.8646 C.3       3 UNK         0.0250 
     58 CB        -79.7899   21.3010  -76.6602 C.3       3 UNK        -0.1996 
     59 N         -80.7023   23.5639  -76.4382 N.am      3 UNK        -0.4254 
     60 C         -80.8469   24.8935  -76.5358 C.2       2 UNK         0.5004 
     61 O         -79.9852   25.6420  -76.9988 O.2       2 UNK        -0.5226 
     62 CA        -82.1549   25.5018  -75.9995 C.3       2 UNK         0.0269 
     63 CB        -83.2752   24.4691  -75.7367 C.3       2 UNK        -0.1926 
     64 N         -81.9269   26.3144  -74.8005 N.am      2 UNK        -0.4687 
     65 C         -81.3567   25.9439  -73.6440 C.2       1 UNK         0.5165 
     66 O         -80.8885   24.8200  -73.4455 O.2       1 UNK        -0.5079 
     67 H67       -84.9520   28.5398  -71.6892 H         1 UNK         0.0900 
     68 H68       -84.5860   30.1075  -72.4118 H         1 UNK         0.0900 
     69 H69       -85.3504   28.8451  -73.3815 H         1 UNK         0.0900 
     70 H70       -83.1487   27.2440  -71.4859 H         1 UNK         0.2959 
     71 H71       -80.6730   27.7963  -72.8939 H         1 UNK         0.1079 
     72 H72       -81.3829   25.7223  -70.7538 H         1 UNK         0.0837 
     73 H73       -79.7756   25.9833  -71.3579 H         1 UNK         0.0837 
     74 H74       -78.4150   26.7802  -69.3162 H         1 UNK         0.0685 
     75 H75       -78.4386   28.4735  -68.8890 H         1 UNK         0.0685 
     76 H76       -79.2684   29.3241  -71.9286 H         1 UNK         0.1434 
     77 H77       -75.4958   28.9374  -73.9120 H         1 UNK         0.1329 
     78 H78       -76.1188   27.0151  -70.1406 H         1 UNK         0.1335 
     79 H79       -74.2627   26.3039  -72.0049 H         1 UNK         0.0680 
     80 H80       -73.7797   27.6166  -73.0450 H         1 UNK         0.0680 
     81 H81       -73.4433   30.3409  -70.0928 H         1 UNK         0.1032 
     82 H82       -74.1058   30.1130  -71.6727 H         1 UNK         0.1032 
     83 H83       -72.1276   31.5610  -71.6894 H         1 UNK         0.0461 
     84 H84       -68.6982   30.0098  -70.7941 H         1 UNK         0.3453 
     85 H85       -69.4249   30.0215  -72.3775 H         1 UNK         0.3453 
     86 H86       -71.2324   29.2301  -73.2274 H         1 UNK         0.2984 
     87 H87       -72.6605   30.3712  -76.2123 H         1 UNK         0.0554 
     88 H88       -70.9292   32.1550  -76.1237 H         1 UNK         0.0847 
     89 H89       -70.3864   30.8101  -77.1106 H         1 UNK         0.0847 
     90 H90       -69.7548   31.0194  -75.4765 H         1 UNK         0.0847 
     91 H91       -70.4104   28.6392  -75.5569 H         1 UNK         0.3141 
     92 H92       -70.7705   26.4259  -76.2263 H         1 UNK         0.0743 
     93 H93       -70.5237   26.7648  -73.7237 H         1 UNK         0.0784 
     94 H94       -72.0558   25.9375  -73.4725 H         1 UNK         0.0784 
     95 H95       -70.6795   25.0686  -74.1403 H         1 UNK         0.0784 
     96 H96       -73.5794   25.6364  -75.9056 H         1 UNK         0.3213 
     97 H97       -72.9625   22.6570  -77.8793 H         1 UNK         0.0855 
     98 H98       -74.2567   23.0726  -75.1343 H         1 UNK         0.0814 
     99 H99       -73.0213   21.8871  -75.5246 H         1 UNK         0.0814 
    100 H100      -74.6173   21.7533  -76.2473 H         1 UNK         0.0814 
    101 H101      -75.4048   23.9367  -77.2262 H         1 UNK         0.3105 
    102 H102      -75.5832   26.0620  -80.0949 H         1 UNK         0.0547 
    103 H103      -77.6646   24.7214  -80.3910 H         1 UNK         0.0837 
    104 H104      -76.9985   23.4363  -79.3851 H         1 UNK         0.0837 
    105 H105      -76.2472   23.8310  -80.9217 H         1 UNK         0.0837 
    106 H106      -77.1992   25.3318  -77.7431 H         1 UNK         0.3020 
    107 H107      -76.1514   28.0227  -75.8196 H         1 UNK         0.1245 
    108 H108      -78.7336   28.1005  -77.4432 H         1 UNK         0.0781 
    109 H109      -77.6629   29.4322  -77.1083 H         1 UNK         0.0781 
    110 H110      -78.5798   30.8311  -73.8591 H         1 UNK         0.0836 
    111 H111      -77.2039   30.3960  -74.8411 H         1 UNK         0.0836 
    112 H112      -78.3364   26.1416  -75.6535 H         1 UNK         0.3022 
    113 H113      -76.4080   23.5371  -74.1434 H         1 UNK         0.0747 
    114 H114      -78.1408   23.9680  -72.3092 H         1 UNK         0.0793 
    115 H115      -76.7008   24.9722  -72.2078 H         1 UNK         0.0793 
    116 H116      -78.1854   25.6517  -72.8485 H         1 UNK         0.0793 
    117 H117      -79.2167   23.8894  -74.5263 H         1 UNK         0.3047 
    118 H118      -79.3907   22.9824  -77.9329 H         1 UNK         0.0822 
    119 H119      -80.6569   20.9681  -77.2312 H         1 UNK         0.0807 
    120 H120      -79.9646   21.0610  -75.6106 H         1 UNK         0.0807 
    121 H121      -78.9380   20.7059  -76.9931 H         1 UNK         0.0807 
    122 H122      -81.4531   23.0376  -76.0151 H         1 UNK         0.2946 
    123 H123      -82.5075   26.1826  -76.7762 H         1 UNK         0.1144 
    124 H124      -83.4871   23.8787  -76.6293 H         1 UNK         0.0793 
    125 H125      -84.2042   24.9683  -75.4608 H         1 UNK         0.0793 
    126 H126      -83.0255   23.7795  -74.9294 H         1 UNK         0.0793 
    127 H127      -82.2376   27.2809  -74.8554 H         1 UNK         0.2896 
@<TRIPOS>BOND
     1    1    2 1    
     2    1   67 1    
     3    1   68 1    
     4    1   69 1    
     5    2    3 2    
     6    2    4 am   BACKBONE|DICT|INTERRES
     7    4    5 1    
     8    4   70 1    
     9    5    6 1    
    10    5   65 1    
    11    5   71 1    
    12    6    7 1    
    13    6   72 1    
    14    6   73 1    
    15    7    8 1    
    16    8    9 1    
    17    8   74 1    
    18    8   75 1    
    19    9   10 ar   
    20    9   14 ar   
    21   10   11 ar   
    22   10   76 1    
    23   11   12 ar   
    24   11   48 1    
    25   12   13 ar   
    26   12   77 1    
    27   13   14 ar   
    28   13   15 1    
    29   14   78 1    
    30   15   16 1    
    31   15   79 1    
    32   15   80 1    
    33   16   17 1    
    34   17   18 1    
    35   17   81 1    
    36   17   82 1    
    37   18   19 1    
    38   18   22 1    
    39   18   83 1    
    40   19   20 am   BACKBONE|DICT|INTERRES
    41   19   21 2    
    42   20   84 1    
    43   20   85 1    
    44   22   23 am   BACKBONE|DICT|INTERRES
    45   22   86 1    
    46   23   24 2    
    47   23   25 1    
    48   25   26 1    
    49   25   27 1    
    50   25   87 1    
    51   26   88 1    
    52   26   89 1    
    53   26   90 1    
    54   27   28 am   BACKBONE|DICT|INTERRES
    55   27   91 1    
    56   28   29 2    
    57   28   30 1    
    58   30   31 1    
    59   30   32 1    
    60   30   92 1    
    61   31   93 1    
    62   31   94 1    
    63   31   95 1    
    64   32   33 am   BACKBONE|DICT|INTERRES
    65   32   96 1    
    66   33   34 2    
    67   33   35 1    
    68   35   36 1    
    69   35   37 1    
    70   35   97 1    
    71   36   98 1    
    72   36   99 1    
    73   36  100 1    
    74   37   38 am   BACKBONE|DICT|INTERRES
    75   37  101 1    
    76   38   39 2    
    77   38   40 1    
    78   40   41 1    
    79   40   42 1    
    80   40  102 1    
    81   41  103 1    
    82   41  104 1    
    83   41  105 1    
    84   42   43 am   BACKBONE|DICT|INTERRES
    85   42  106 1    
    86   43   44 2    
    87   43   45 1    
    88   45   46 1    
    89   45   49 1    
    90   45  107 1    
    91   46   47 1    
    92   46  108 1    
    93   46  109 1    
    94   47   48 1    
    95   48  110 1    
    96   48  111 1    
    97   49   50 am   BACKBONE|DICT|INTERRES
    98   49  112 1    
    99   50   51 2    
   100   50   52 1    
   101   52   53 1    
   102   52   54 1    
   103   52  113 1    
   104   53  114 1    
   105   53  115 1    
   106   53  116 1    
   107   54   55 am   BACKBONE|DICT|INTERRES
   108   54  117 1    
   109   55   56 2    
   110   55   57 1    
   111   57   58 1    
   112   57   59 1    
   113   57  118 1    
   114   58  119 1    
   115   58  120 1    
   116   58  121 1    
   117   59   60 am   BACKBONE|DICT|INTERRES
   118   59  122 1    
   119   60   61 2    
   120   60   62 1    
   121   62   63 1    
   122   62   64 1    
   123   62  123 1    
   124   63  124 1    
   125   63  125 1    
   126   63  126 1    
   127   64   65 am   BACKBONE|DICT|INTERRES
   128   64  127 1    
   129   65   66 2    
@<TRIPOS>SUBSTRUCTURE
     1 UNK         1 GROUP             0       ****    0 ROOT    
