@<TRIPOS>MOLECULE
3R135
127   129    1
SMALL
USER_CHARGES


@<TRIPOS>ATOM
      1 CA        -79.0029   30.6795  -75.8431 C.3       0 UNK        -0.1998 
      2 C         -79.2259   29.5529  -74.8472 C.2       0 UNK         0.4909 
      3 O         -78.4129   28.6337  -74.7704 O.2       0 UNK        -0.5240 
      4 N         -80.3242   29.6193  -74.0849 N.am      1 UNK        -0.4739 
      5 CA        -80.7123   28.6134  -73.0963 C.3       1 UNK         0.0864 
      6 C6        -81.5595   29.2445  -71.9606 C.3       11 UNK        -0.0881 
      7 S7        -81.6926   28.1422  -70.5102 S.3       11 UNK        -0.2682 
      8 C8        -80.5801   28.9475  -69.3148 C.3       11 UNK         0.0289 
      9 C9        -79.1438   29.0142  -69.8148 C.ar      11 UNK        -0.0687 
     10 C10       -78.3811   27.8491  -69.9278 C.ar      11 UNK        -0.0823 
     11 C11       -77.0590   27.9036  -70.3812 C.ar      11 UNK        -0.0830 
     12 C12       -76.4921   29.1435  -70.6981 C.ar      11 UNK        -0.1021 
     13 C13       -77.2422   30.3184  -70.5757 C.ar      11 UNK        -0.0753 
     14 C14       -78.5699   30.2445  -70.1450 C.ar      11 UNK        -0.0933 
     15 C15       -76.6181   31.6778  -70.8592 C.3       11 UNK         0.0166 
     16 S16       -76.5598   32.0554  -72.6389 S.3       11 UNK        -0.2615 
     17 C17       -74.9406   31.3595  -73.1184 C.3       11 UNK        -0.0865 
     18 CA        -75.0674   30.1167  -74.0474 C.3       10 UNK         0.0862 
     19 C         -75.2020   30.4735  -75.5593 C.2       10 UNK         0.5551 
     20 N         -74.8967   29.5558  -76.4667 N.am      10 UNK        -0.7319 
     21 O         -75.5811   31.5835  -75.9244 O.2       10 UNK        -0.5018 
     22 N         -74.0328   29.1073  -73.7653 N.am      10 UNK        -0.4509 
     23 C         -72.7105   29.2789  -73.8948 C.2       10 UNK         0.4899 
     24 O         -72.1789   30.3297  -74.2529 O.2       10 UNK        -0.4839 
     25 CA        -71.8324   28.0693  -73.5594 C.3       9 UNK         0.0222 
     26 CB        -72.2357   27.3859  -72.2362 C.3       9 UNK        -0.1966 
     27 N         -71.8682   27.1058  -74.6572 N.am      9 UNK        -0.4218 
     28 C         -70.8545   26.2990  -74.9946 C.2       9 UNK         0.5020 
     29 O         -69.7588   26.3009  -74.4304 O.2       9 UNK        -0.5274 
     30 CA        -71.0981   25.2999  -76.1385 C.3       8 UNK         0.0270 
     31 CB        -71.7542   24.0197  -75.5968 C.3       8 UNK        -0.1976 
     32 N         -71.9153   25.8287  -77.2309 N.am      8 UNK        -0.4313 
     33 C         -71.5556   26.7903  -78.0888 C.2       8 UNK         0.5041 
     34 O         -70.4726   27.3745  -78.0386 O.2       8 UNK        -0.5577 
     35 CA        -72.5569   27.1709  -79.2012 C.3       7 UNK         0.0284 
     36 CB        -72.3074   26.3375  -80.4738 C.3       7 UNK        -0.1958 
     37 N         -73.9754   27.1383  -78.8060 N.am      7 UNK        -0.4454 
     38 C         -74.7221   26.0897  -78.4343 C.2       7 UNK         0.5089 
     39 O         -74.3249   24.9229  -78.4310 O.2       7 UNK        -0.5125 
     40 CA        -76.1266   26.4136  -77.8962 C.3       6 UNK         0.0408 
     41 CB        -77.2102   25.8734  -78.8414 C.3       6 UNK        -0.1791 
     42 N         -76.3383   25.8618  -76.5555 N.am      6 UNK        -0.4762 
     43 C         -75.5469   26.0377  -75.4861 C.2       6 UNK         0.5007 
     44 O         -74.5493   26.7620  -75.4891 O.2       6 UNK        -0.5032 
     45 CA        -75.9105   25.2807  -74.1958 C.3       5 UNK         0.0783 
     46 C46       -76.7283   26.1882  -73.2467 C.3       11 UNK        -0.0857 
     47 S47       -76.9938   25.4096  -71.6205 S.3       11 UNK        -0.2512 
     48 C48       -76.2381   26.6243  -70.4905 C.3       11 UNK         0.0225 
     49 N         -76.6274   24.0407  -74.5058 N.am      5 UNK        -0.4615 
     50 C         -76.0747   22.8238  -74.5741 C.2       4 UNK         0.5053 
     51 O         -74.8804   22.6039  -74.3737 O.2       4 UNK        -0.5105 
     52 CA        -77.0080   21.6402  -74.8971 C.3       4 UNK         0.0263 
     53 CB        -77.4162   20.9185  -73.6023 C.3       4 UNK        -0.1981 
     54 N         -78.2180   22.0358  -75.6232 N.am      4 UNK        -0.4224 
     55 C         -78.2520   22.3616  -76.9230 C.2       3 UNK         0.4895 
     56 O         -77.2828   22.2690  -77.6754 O.2       3 UNK        -0.5091 
     57 CA        -79.5844   22.9028  -77.4813 C.3       3 UNK         0.0250 
     58 CB        -80.3729   21.7749  -78.1665 C.3       3 UNK        -0.1996 
     59 N         -80.4518   23.5705  -76.4988 N.am      3 UNK        -0.4254 
     60 C         -80.1035   24.6243  -75.7475 C.2       2 UNK         0.5004 
     61 O         -78.9745   25.1171  -75.7517 O.2       2 UNK        -0.5226 
     62 CA        -81.1708   25.1863  -74.8029 C.3       2 UNK         0.0269 
     63 CB        -81.5101   24.1811  -73.6857 C.3       2 UNK        -0.1926 
     64 N         -80.6773   26.4227  -74.1987 N.am      2 UNK        -0.4687 
     65 C         -81.4366   27.4468  -73.8005 C.2       1 UNK         0.5165 
     66 O         -82.6556   27.4982  -73.9814 O.2       1 UNK        -0.5079 
     67 H67       -78.5793   30.2885  -76.7680 H         1 UNK         0.0900 
     68 H68       -78.3054   31.4078  -75.4305 H         1 UNK         0.0900 
     69 H69       -79.9322   31.1937  -76.0868 H         1 UNK         0.0900 
     70 H70       -80.9740   30.3818  -74.2137 H         1 UNK         0.2959 
     71 H71       -79.8004   28.2192  -72.6394 H         1 UNK         0.1079 
     72 H72       -81.1123   30.1872  -71.6425 H         1 UNK         0.0837 
     73 H73       -82.5629   29.5022  -72.3047 H         1 UNK         0.0837 
     74 H74       -80.9616   29.9442  -69.0872 H         1 UNK         0.0685 
     75 H75       -80.6070   28.3897  -68.3777 H         1 UNK         0.0685 
     76 H76       -78.8216   26.8952  -69.6703 H         1 UNK         0.1434 
     77 H77       -75.4638   29.1986  -71.0266 H         1 UNK         0.1329 
     78 H78       -79.1526   31.1505  -70.0494 H         1 UNK         0.1335 
     79 H79       -77.1985   32.4608  -70.3685 H         1 UNK         0.0680 
     80 H80       -75.6223   31.7349  -70.4180 H         1 UNK         0.0680 
     81 H81       -74.3919   31.0986  -72.2133 H         1 UNK         0.1032 
     82 H82       -74.3422   32.1418  -73.5892 H         1 UNK         0.1032 
     83 H83       -76.0022   29.6134  -73.7988 H         1 UNK         0.0461 
     84 H84       -74.9768   29.8047  -77.4373 H         1 UNK         0.3453 
     85 H85       -74.6347   28.6221  -76.1744 H         1 UNK         0.3453 
     86 H86       -74.3723   28.1845  -73.5434 H         1 UNK         0.2984 
     87 H87       -70.8147   28.4493  -73.4456 H         1 UNK         0.0554 
     88 H88       -71.4809   26.6632  -71.9257 H         1 UNK         0.0847 
     89 H89       -73.1827   26.8526  -72.3196 H         1 UNK         0.0847 
     90 H90       -72.3333   28.1140  -71.4297 H         1 UNK         0.0847 
     91 H91       -72.7476   27.0317  -75.1656 H         1 UNK         0.3141 
     92 H92       -70.1242   25.0335  -76.5545 H         1 UNK         0.0743 
     93 H93       -72.7495   24.2160  -75.1961 H         1 UNK         0.0784 
     94 H94       -71.8517   23.2623  -76.3749 H         1 UNK         0.0784 
     95 H95       -71.1592   23.5836  -74.7932 H         1 UNK         0.0784 
     96 H96       -72.8150   25.3839  -77.3960 H         1 UNK         0.3213 
     97 H97       -72.3498   28.2129  -79.4511 H         1 UNK         0.0855 
     98 H98       -71.2797   26.4566  -80.8196 H         1 UNK         0.0814 
     99 H99       -72.9611   26.6504  -81.2878 H         1 UNK         0.0814 
    100 H100      -72.4679   25.2724  -80.3044 H         1 UNK         0.0814 
    101 H101      -74.4101   28.0478  -78.7552 H         1 UNK         0.3105 
    102 H102      -76.2484   27.4953  -77.8240 H         1 UNK         0.0547 
    103 H103      -77.1117   26.3068  -79.8374 H         1 UNK         0.0837 
    104 H104      -77.1428   24.7901  -78.9493 H         1 UNK         0.0837 
    105 H105      -78.2099   26.1141  -78.4790 H         1 UNK         0.0837 
    106 H106      -77.1918   25.3292  -76.4211 H         1 UNK         0.3020 
    107 H107      -74.9662   25.0408  -73.7013 H         1 UNK         0.1245 
    108 H108      -77.7064   26.4052  -73.6749 H         1 UNK         0.0781 
    109 H109      -76.2409   27.1541  -73.1091 H         1 UNK         0.0781 
    110 H110      -75.2179   26.8346  -70.8139 H         1 UNK         0.0836 
    111 H111      -76.1569   26.1758  -69.4995 H         1 UNK         0.0836 
    112 H112      -77.6072   24.1533  -74.7400 H         1 UNK         0.3022 
    113 H113      -76.4458   20.9380  -75.5167 H         1 UNK         0.0747 
    114 H114      -78.0239   20.0380  -73.8122 H         1 UNK         0.0793 
    115 H115      -76.5375   20.5798  -73.0515 H         1 UNK         0.0793 
    116 H116      -77.9846   21.5709  -72.9378 H         1 UNK         0.0793 
    117 H117      -79.0676   22.1223  -75.0853 H         1 UNK         0.3047 
    118 H118      -79.3304   23.6462  -78.2394 H         1 UNK         0.0822 
    119 H119      -81.2601   22.1586  -78.6707 H         1 UNK         0.0807 
    120 H120      -80.6927   21.0145  -77.4529 H         1 UNK         0.0807 
    121 H121      -79.7649   21.2763  -78.9230 H         1 UNK         0.0807 
    122 H122      -81.3945   23.2152  -76.4240 H         1 UNK         0.2946 
    123 H123      -82.0632   25.3970  -75.3970 H         1 UNK         0.1144 
    124 H124      -81.9053   23.2490  -74.0909 H         1 UNK         0.0793 
    125 H125      -82.2678   24.5810  -73.0114 H         1 UNK         0.0793 
    126 H126      -80.6318   23.9339  -73.0875 H         1 UNK         0.0793 
    127 H127      -79.6682   26.5093  -74.1697 H         1 UNK         0.2896 
@<TRIPOS>BOND
     1    1    2 1    
     2    1   67 1    
     3    1   68 1    
     4    1   69 1    
     5    2    3 2    
     6    2    4 am   BACKBONE|DICT|INTERRES
     7    4    5 1    
     8    4   70 1    
     9    5    6 1    
    10    5   65 1    
    11    5   71 1    
    12    6    7 1    
    13    6   72 1    
    14    6   73 1    
    15    7    8 1    
    16    8    9 1    
    17    8   74 1    
    18    8   75 1    
    19    9   10 ar   
    20    9   14 ar   
    21   10   11 ar   
    22   10   76 1    
    23   11   12 ar   
    24   11   48 1    
    25   12   13 ar   
    26   12   77 1    
    27   13   14 ar   
    28   13   15 1    
    29   14   78 1    
    30   15   16 1    
    31   15   79 1    
    32   15   80 1    
    33   16   17 1    
    34   17   18 1    
    35   17   81 1    
    36   17   82 1    
    37   18   19 1    
    38   18   22 1    
    39   18   83 1    
    40   19   20 am   BACKBONE|DICT|INTERRES
    41   19   21 2    
    42   20   84 1    
    43   20   85 1    
    44   22   23 am   BACKBONE|DICT|INTERRES
    45   22   86 1    
    46   23   24 2    
    47   23   25 1    
    48   25   26 1    
    49   25   27 1    
    50   25   87 1    
    51   26   88 1    
    52   26   89 1    
    53   26   90 1    
    54   27   28 am   BACKBONE|DICT|INTERRES
    55   27   91 1    
    56   28   29 2    
    57   28   30 1    
    58   30   31 1    
    59   30   32 1    
    60   30   92 1    
    61   31   93 1    
    62   31   94 1    
    63   31   95 1    
    64   32   33 am   BACKBONE|DICT|INTERRES
    65   32   96 1    
    66   33   34 2    
    67   33   35 1    
    68   35   36 1    
    69   35   37 1    
    70   35   97 1    
    71   36   98 1    
    72   36   99 1    
    73   36  100 1    
    74   37   38 am   BACKBONE|DICT|INTERRES
    75   37  101 1    
    76   38   39 2    
    77   38   40 1    
    78   40   41 1    
    79   40   42 1    
    80   40  102 1    
    81   41  103 1    
    82   41  104 1    
    83   41  105 1    
    84   42   43 am   BACKBONE|DICT|INTERRES
    85   42  106 1    
    86   43   44 2    
    87   43   45 1    
    88   45   46 1    
    89   45   49 1    
    90   45  107 1    
    91   46   47 1    
    92   46  108 1    
    93   46  109 1    
    94   47   48 1    
    95   48  110 1    
    96   48  111 1    
    97   49   50 am   BACKBONE|DICT|INTERRES
    98   49  112 1    
    99   50   51 2    
   100   50   52 1    
   101   52   53 1    
   102   52   54 1    
   103   52  113 1    
   104   53  114 1    
   105   53  115 1    
   106   53  116 1    
   107   54   55 am   BACKBONE|DICT|INTERRES
   108   54  117 1    
   109   55   56 2    
   110   55   57 1    
   111   57   58 1    
   112   57   59 1    
   113   57  118 1    
   114   58  119 1    
   115   58  120 1    
   116   58  121 1    
   117   59   60 am   BACKBONE|DICT|INTERRES
   118   59  122 1    
   119   60   61 2    
   120   60   62 1    
   121   62   63 1    
   122   62   64 1    
   123   62  123 1    
   124   63  124 1    
   125   63  125 1    
   126   63  126 1    
   127   64   65 am   BACKBONE|DICT|INTERRES
   128   64  127 1    
   129   65   66 2    
@<TRIPOS>SUBSTRUCTURE
     1 UNK         1 GROUP             0       ****    0 ROOT    
