@<TRIPOS>MOLECULE
3R135
127   129    1
SMALL
USER_CHARGES


@<TRIPOS>ATOM
      1 CA        -83.9467   25.0721  -74.6849 C.3       0 UNK        -0.1998 
      2 C         -83.0159   26.2646  -74.8403 C.2       0 UNK         0.4909 
      3 O         -82.6443   26.6089  -75.9626 O.2       0 UNK        -0.5240 
      4 N         -82.6344   26.9038  -73.7271 N.am      1 UNK        -0.4739 
      5 CA        -81.7022   28.0350  -73.7032 C.3       1 UNK         0.0864 
      6 C6        -81.7491   28.8073  -72.3608 C.3       11 UNK        -0.0881 
      7 S7        -81.4355   27.7936  -70.8711 S.3       11 UNK        -0.2682 
      8 C8        -80.1823   28.7861  -69.9976 C.3       11 UNK         0.0289 
      9 C9        -78.8011   28.6412  -70.6198 C.ar      11 UNK        -0.0687 
     10 C10       -77.9866   27.5628  -70.2674 C.ar      11 UNK        -0.0823 
     11 C11       -76.7122   27.4253  -70.8232 C.ar      11 UNK        -0.0830 
     12 C12       -76.2588   28.3693  -71.7475 C.ar      11 UNK        -0.1021 
     13 C13       -77.0560   29.4667  -72.1011 C.ar      11 UNK        -0.0753 
     14 C14       -78.3242   29.5931  -71.5255 C.ar      11 UNK        -0.0933 
     15 C15       -76.6070   30.5473  -73.0865 C.3       11 UNK         0.0166 
     16 S16       -75.0508   30.2223  -73.9845 S.3       11 UNK        -0.2615 
     17 C17       -73.8107   30.8825  -72.8102 C.3       11 UNK        -0.0865 
     18 CA        -72.4545   30.1216  -72.8190 C.3       10 UNK         0.0862 
     19 C         -72.5043   28.7948  -72.0118 C.2       10 UNK         0.5551 
     20 N         -72.3255   27.6262  -72.6133 N.am      10 UNK        -0.7319 
     21 O         -72.6838   28.8298  -70.7971 O.2       10 UNK        -0.5018 
     22 N         -71.8877   30.0031  -74.1712 N.am      10 UNK        -0.4509 
     23 C         -71.2224   30.9749  -74.8120 C.2       10 UNK         0.4899 
     24 O         -70.9334   32.0575  -74.3008 O.2       10 UNK        -0.4839 
     25 CA        -70.8148   30.7164  -76.2777 C.3       9 UNK         0.0222 
     26 CB        -69.3552   30.2402  -76.3530 C.3       9 UNK        -0.1966 
     27 N         -71.6759   29.7324  -76.9344 N.am      9 UNK        -0.4218 
     28 C         -72.9633   29.9269  -77.2486 C.2       9 UNK         0.5020 
     29 O         -73.4941   31.0385  -77.2589 O.2       9 UNK        -0.5274 
     30 CA        -73.8197   28.6835  -77.5780 C.3       8 UNK         0.0270 
     31 CB        -74.4969   28.8203  -78.9526 C.3       8 UNK        -0.1976 
     32 N         -73.1450   27.3786  -77.5127 N.am      8 UNK        -0.4313 
     33 C         -72.5663   26.8231  -76.4406 C.2       8 UNK         0.5041 
     34 O         -72.4269   27.4050  -75.3637 O.2       8 UNK        -0.5577 
     35 CA        -72.0680   25.3771  -76.6055 C.3       7 UNK         0.0284 
     36 CB        -71.0876   24.9680  -75.4910 C.3       7 UNK        -0.1958 
     37 N         -73.1968   24.4500  -76.6037 N.am      7 UNK        -0.4454 
     38 C         -74.0756   24.2768  -77.5968 C.2       7 UNK         0.5089 
     39 O         -73.9618   24.8109  -78.7015 O.2       7 UNK        -0.5125 
     40 CA        -75.3032   23.3947  -77.3088 C.3       6 UNK         0.0408 
     41 CB        -75.0235   21.9163  -77.6375 C.3       6 UNK        -0.1791 
     42 N         -75.8659   23.5582  -75.9597 N.am      6 UNK        -0.4762 
     43 C         -75.3616   23.1944  -74.7706 C.2       6 UNK         0.5007 
     44 O         -74.2567   22.6680  -74.6351 O.2       6 UNK        -0.5032 
     45 CA        -76.2171   23.4666  -73.5170 C.3       5 UNK         0.0783 
     46 C46       -75.6923   24.6835  -72.7190 C.3       11 UNK        -0.0857 
     47 S47       -76.3952   24.6811  -71.0377 S.3       11 UNK        -0.2512 
     48 C48       -75.8138   26.2766  -70.3917 C.3       11 UNK         0.0225 
     49 N         -77.6401   23.6068  -73.8427 N.am      5 UNK        -0.4615 
     50 C         -78.4752   22.5773  -74.0312 C.2       4 UNK         0.5053 
     51 O         -78.1529   21.3961  -73.9011 O.2       4 UNK        -0.5105 
     52 CA        -79.9076   22.9285  -74.4595 C.3       4 UNK         0.0263 
     53 CB        -80.7627   23.3057  -73.2386 C.3       4 UNK        -0.1981 
     54 N         -79.9212   24.0097  -75.4503 N.am      4 UNK        -0.4224 
     55 C         -79.5671   23.8376  -76.7349 C.2       3 UNK         0.4895 
     56 O         -79.2797   22.7421  -77.2177 O.2       3 UNK        -0.5091 
     57 CA        -79.5042   25.0755  -77.6476 C.3       3 UNK         0.0250 
     58 CB        -80.7380   25.1373  -78.5622 C.3       3 UNK        -0.1996 
     59 N         -79.3693   26.3404  -76.9233 N.am      3 UNK        -0.4254 
     60 C         -78.2531   26.7395  -76.2955 C.2       2 UNK         0.5004 
     61 O         -77.2184   26.0769  -76.2599 O.2       2 UNK        -0.5226 
     62 CA        -78.3113   28.0864  -75.5517 C.3       2 UNK         0.0269 
     63 CB        -77.9163   29.2219  -76.5111 C.3       2 UNK        -0.1926 
     64 N         -79.6232   28.3853  -74.9622 N.am      2 UNK        -0.4687 
     65 C         -80.2805   27.5880  -74.1065 C.2       1 UNK         0.5165 
     66 O         -79.8310   26.5149  -73.6962 O.2       1 UNK        -0.5079 
     67 H67       -84.1065   24.8142  -73.6381 H         1 UNK         0.0900 
     68 H68       -83.5287   24.2020  -75.1903 H         1 UNK         0.0900 
     69 H69       -84.9148   25.2929  -75.1332 H         1 UNK         0.0900 
     70 H70       -82.9262   26.5662  -72.8207 H         1 UNK         0.2959 
     71 H71       -82.0473   28.7305  -74.4721 H         1 UNK         0.1079 
     72 H72       -81.0632   29.6539  -72.3934 H         1 UNK         0.0837 
     73 H73       -82.7385   29.2518  -72.2423 H         1 UNK         0.0837 
     74 H74       -80.4900   29.8328  -69.9755 H         1 UNK         0.0685 
     75 H75       -80.1460   28.4618  -68.9565 H         1 UNK         0.0685 
     76 H76       -78.3440   26.8288  -69.5580 H         1 UNK         0.1434 
     77 H77       -75.2761   28.2435  -72.1741 H         1 UNK         0.1329 
     78 H78       -78.9431   30.4404  -71.7859 H         1 UNK         0.1335 
     79 H79       -77.3953   30.6827  -73.8262 H         1 UNK         0.0680 
     80 H80       -76.5239   31.4993  -72.5604 H         1 UNK         0.0680 
     81 H81       -74.2298   30.9038  -71.8022 H         1 UNK         0.1032 
     82 H82       -73.6374   31.9270  -73.0726 H         1 UNK         0.1032 
     83 H83       -71.7544   30.7315  -72.2443 H         1 UNK         0.0461 
     84 H84       -72.3317   26.7885  -72.0564 H         1 UNK         0.3453 
     85 H85       -72.2624   27.5535  -73.6275 H         1 UNK         0.3453 
     86 H86       -72.0892   29.1323  -74.6553 H         1 UNK         0.2984 
     87 H87       -70.8976   31.6608  -76.8195 H         1 UNK         0.0554 
     88 H88       -69.0323   30.1090  -77.3860 H         1 UNK         0.0847 
     89 H89       -69.2111   29.2929  -75.8316 H         1 UNK         0.0847 
     90 H90       -68.6842   30.9686  -75.8956 H         1 UNK         0.0847 
     91 H91       -71.3483   28.7774  -76.9337 H         1 UNK         0.3141 
     92 H92       -74.6029   28.6588  -76.8184 H         1 UNK         0.0743 
     93 H93       -75.1950   28.0024  -79.1335 H         1 UNK         0.0784 
     94 H94       -75.0676   29.7476  -79.0218 H         1 UNK         0.0784 
     95 H95       -73.7654   28.8253  -79.7613 H         1 UNK         0.0784 
     96 H96       -73.2581   26.7791  -78.3233 H         1 UNK         0.3213 
     97 H97       -71.5456   25.3031  -77.5618 H         1 UNK         0.0855 
     98 H98       -70.2339   25.6459  -75.4533 H         1 UNK         0.0814 
     99 H99       -70.6969   23.9638  -75.6560 H         1 UNK         0.0814 
    100 H100      -71.5609   24.9849  -74.5082 H         1 UNK         0.0814 
    101 H101      -73.3791   23.9445  -75.7416 H         1 UNK         0.3105 
    102 H102      -76.0897   23.7335  -77.9851 H         1 UNK         0.0547 
    103 H103      -74.7188   21.8026  -78.6786 H         1 UNK         0.0837 
    104 H104      -74.2250   21.5019  -77.0216 H         1 UNK         0.0837 
    105 H105      -75.9135   21.3042  -77.4915 H         1 UNK         0.0837 
    106 H106      -76.7083   24.1232  -75.9368 H         1 UNK         0.3020 
    107 H107      -76.0948   22.5807  -72.8886 H         1 UNK         0.1245 
    108 H108      -75.9379   25.6205  -73.2235 H         1 UNK         0.0781 
    109 H109      -74.6047   24.6546  -72.6238 H         1 UNK         0.0781 
    110 H110      -74.7803   26.4466  -70.6984 H         1 UNK         0.0836 
    111 H111      -75.8007   26.2285  -69.3019 H         1 UNK         0.0836 
    112 H112      -77.9951   24.5487  -73.9349 H         1 UNK         0.3022 
    113 H113      -80.3494   22.0385  -74.9132 H         1 UNK         0.0747 
    114 H114      -81.7906   23.5221  -73.5236 H         1 UNK         0.0793 
    115 H115      -80.7943   22.4845  -72.5215 H         1 UNK         0.0793 
    116 H116      -80.3678   24.1753  -72.7128 H         1 UNK         0.0793 
    117 H117      -80.1017   24.9456  -75.1045 H         1 UNK         0.3047 
    118 H118      -78.6224   24.9603  -78.2822 H         1 UNK         0.0822 
    119 H119      -80.6820   25.9806  -79.2507 H         1 UNK         0.0807 
    120 H120      -81.6620   25.2292  -77.9912 H         1 UNK         0.0807 
    121 H121      -80.8200   24.2326  -79.1663 H         1 UNK         0.0807 
    122 H122      -80.1932   26.9242  -76.8692 H         1 UNK         0.2946 
    123 H123      -77.5836   28.0415  -74.7379 H         1 UNK         0.1144 
    124 H124      -77.8853   30.1874  -76.0087 H         1 UNK         0.0793 
    125 H125      -78.6121   29.3046  -77.3469 H         1 UNK         0.0793 
    126 H126      -76.9258   29.0485  -76.9317 H         1 UNK         0.0793 
    127 H127      -80.0622   29.2430  -75.2649 H         1 UNK         0.2896 
@<TRIPOS>BOND
     1    1    2 1    
     2    1   67 1    
     3    1   68 1    
     4    1   69 1    
     5    2    3 2    
     6    2    4 am   BACKBONE|DICT|INTERRES
     7    4    5 1    
     8    4   70 1    
     9    5    6 1    
    10    5   65 1    
    11    5   71 1    
    12    6    7 1    
    13    6   72 1    
    14    6   73 1    
    15    7    8 1    
    16    8    9 1    
    17    8   74 1    
    18    8   75 1    
    19    9   10 ar   
    20    9   14 ar   
    21   10   11 ar   
    22   10   76 1    
    23   11   12 ar   
    24   11   48 1    
    25   12   13 ar   
    26   12   77 1    
    27   13   14 ar   
    28   13   15 1    
    29   14   78 1    
    30   15   16 1    
    31   15   79 1    
    32   15   80 1    
    33   16   17 1    
    34   17   18 1    
    35   17   81 1    
    36   17   82 1    
    37   18   19 1    
    38   18   22 1    
    39   18   83 1    
    40   19   20 am   BACKBONE|DICT|INTERRES
    41   19   21 2    
    42   20   84 1    
    43   20   85 1    
    44   22   23 am   BACKBONE|DICT|INTERRES
    45   22   86 1    
    46   23   24 2    
    47   23   25 1    
    48   25   26 1    
    49   25   27 1    
    50   25   87 1    
    51   26   88 1    
    52   26   89 1    
    53   26   90 1    
    54   27   28 am   BACKBONE|DICT|INTERRES
    55   27   91 1    
    56   28   29 2    
    57   28   30 1    
    58   30   31 1    
    59   30   32 1    
    60   30   92 1    
    61   31   93 1    
    62   31   94 1    
    63   31   95 1    
    64   32   33 am   BACKBONE|DICT|INTERRES
    65   32   96 1    
    66   33   34 2    
    67   33   35 1    
    68   35   36 1    
    69   35   37 1    
    70   35   97 1    
    71   36   98 1    
    72   36   99 1    
    73   36  100 1    
    74   37   38 am   BACKBONE|DICT|INTERRES
    75   37  101 1    
    76   38   39 2    
    77   38   40 1    
    78   40   41 1    
    79   40   42 1    
    80   40  102 1    
    81   41  103 1    
    82   41  104 1    
    83   41  105 1    
    84   42   43 am   BACKBONE|DICT|INTERRES
    85   42  106 1    
    86   43   44 2    
    87   43   45 1    
    88   45   46 1    
    89   45   49 1    
    90   45  107 1    
    91   46   47 1    
    92   46  108 1    
    93   46  109 1    
    94   47   48 1    
    95   48  110 1    
    96   48  111 1    
    97   49   50 am   BACKBONE|DICT|INTERRES
    98   49  112 1    
    99   50   51 2    
   100   50   52 1    
   101   52   53 1    
   102   52   54 1    
   103   52  113 1    
   104   53  114 1    
   105   53  115 1    
   106   53  116 1    
   107   54   55 am   BACKBONE|DICT|INTERRES
   108   54  117 1    
   109   55   56 2    
   110   55   57 1    
   111   57   58 1    
   112   57   59 1    
   113   57  118 1    
   114   58  119 1    
   115   58  120 1    
   116   58  121 1    
   117   59   60 am   BACKBONE|DICT|INTERRES
   118   59  122 1    
   119   60   61 2    
   120   60   62 1    
   121   62   63 1    
   122   62   64 1    
   123   62  123 1    
   124   63  124 1    
   125   63  125 1    
   126   63  126 1    
   127   64   65 am   BACKBONE|DICT|INTERRES
   128   64  127 1    
   129   65   66 2    
@<TRIPOS>SUBSTRUCTURE
     1 UNK         1 GROUP             0       ****    0 ROOT    
