@<TRIPOS>MOLECULE
3R135
127   129    1
SMALL
USER_CHARGES


@<TRIPOS>ATOM
      1 CA        -83.5834   29.9468  -74.1979 C.3       0 UNK        -0.1998 
      2 C         -82.3950   28.9990  -74.1574 C.2       0 UNK         0.4909 
      3 O         -81.4734   29.1342  -74.9604 O.2       0 UNK        -0.5240 
      4 N         -82.4136   28.0224  -73.2424 N.am      1 UNK        -0.4739 
      5 CA        -81.3335   27.0544  -72.9917 C.3       1 UNK         0.0864 
      6 C6        -81.3348   26.5635  -71.5188 C.3       11 UNK        -0.0881 
      7 S7        -81.3039   27.9346  -70.3127 S.3       11 UNK        -0.2682 
      8 C8        -79.5733   27.8982  -69.7305 C.3       11 UNK         0.0289 
      9 C9        -78.5228   28.3087  -70.7641 C.ar      11 UNK        -0.0687 
     10 C10       -78.7980   29.2193  -71.7938 C.ar      11 UNK        -0.0823 
     11 C11       -77.8075   29.5923  -72.7089 C.ar      11 UNK        -0.0830 
     12 C12       -76.5126   29.0886  -72.5524 C.ar      11 UNK        -0.1021 
     13 C13       -76.2194   28.1887  -71.5259 C.ar      11 UNK        -0.0753 
     14 C14       -77.2280   27.7955  -70.6433 C.ar      11 UNK        -0.0933 
     15 C15       -74.8049   27.6639  -71.3605 C.3       11 UNK         0.0166 
     16 S16       -73.8569   28.7530  -70.2557 S.3       11 UNK        -0.2615 
     17 C17       -72.1431   28.2767  -70.6561 C.3       11 UNK        -0.0865 
     18 CA        -71.4313   29.3425  -71.5318 C.3       10 UNK         0.0862 
     19 C         -69.9003   29.0656  -71.6187 C.2       10 UNK         0.5551 
     20 N         -69.3149   28.8999  -72.7984 N.am      10 UNK        -0.7319 
     21 O         -69.2285   29.0082  -70.5916 O.2       10 UNK        -0.5018 
     22 N         -72.1019   29.5039  -72.8335 N.am      10 UNK        -0.4509 
     23 C         -72.0243   30.5764  -73.6284 C.2       10 UNK         0.4899 
     24 O         -71.4067   31.6015  -73.3365 O.2       10 UNK        -0.4839 
     25 CA        -72.7250   30.4528  -74.9978 C.3       9 UNK         0.0222 
     26 CB        -72.6294   31.7421  -75.8347 C.3       9 UNK        -0.1966 
     27 N         -72.1782   29.3341  -75.7749 N.am      9 UNK        -0.4218 
     28 C         -72.4967   28.0482  -75.5836 C.2       9 UNK         0.5020 
     29 O         -73.3173   27.6707  -74.7460 O.2       9 UNK        -0.5274 
     30 CA        -71.7120   27.0097  -76.3885 C.3       8 UNK         0.0270 
     31 CB        -70.4043   26.6547  -75.6497 C.3       8 UNK        -0.1976 
     32 N         -72.5556   25.8288  -76.5584 N.am      8 UNK        -0.4313 
     33 C         -72.2973   24.7869  -77.3581 C.2       8 UNK         0.5041 
     34 O         -71.2666   24.6652  -78.0223 O.2       8 UNK        -0.5577 
     35 CA        -73.3896   23.7093  -77.4655 C.3       7 UNK         0.0284 
     36 CB        -73.4691   22.8699  -76.1796 C.3       7 UNK        -0.1958 
     37 N         -74.7035   24.2767  -77.7756 N.am      7 UNK        -0.4454 
     38 C         -75.0075   24.9219  -78.9128 C.2       7 UNK         0.5089 
     39 O         -74.2379   25.0331  -79.8678 O.2       7 UNK        -0.5125 
     40 CA        -76.4026   25.5652  -79.0039 C.3       6 UNK         0.0408 
     41 CB        -77.4114   24.5760  -79.6057 C.3       6 UNK        -0.1791 
     42 N         -76.8983   26.0507  -77.7139 N.am      6 UNK        -0.4762 
     43 C         -76.3439   27.0487  -77.0078 C.2       6 UNK         0.5007 
     44 O         -75.3814   27.7065  -77.4030 O.2       6 UNK        -0.5032 
     45 CA        -76.9492   27.3392  -75.6215 C.3       5 UNK         0.0783 
     46 C46       -78.0863   28.3928  -75.6919 C.3       11 UNK        -0.0857 
     47 S47       -77.4447   30.0863  -75.4651 S.3       11 UNK        -0.2512 
     48 C48       -78.1486   30.5567  -73.8438 C.3       11 UNK         0.0225 
     49 N         -77.3901   26.1059  -74.9670 N.am      5 UNK        -0.4615 
     50 C         -76.5699   25.2545  -74.3367 C.2       4 UNK         0.5053 
     51 O         -75.3550   25.4109  -74.2379 O.2       4 UNK        -0.5105 
     52 CA        -77.2116   23.9947  -73.7367 C.3       4 UNK         0.0263 
     53 CB        -77.7889   24.3024  -72.3459 C.3       4 UNK        -0.1981 
     54 N         -78.2515   23.4292  -74.6005 N.am      4 UNK        -0.4224 
     55 C         -78.0040   22.8769  -75.7992 C.2       3 UNK         0.4895 
     56 O         -76.8768   22.7673  -76.2812 O.2       3 UNK        -0.5091 
     57 CA        -79.2126   22.3990  -76.6236 C.3       3 UNK         0.0250 
     58 CB        -79.5382   20.9337  -76.2945 C.3       3 UNK        -0.1996 
     59 N         -80.4182   23.2142  -76.4548 N.am      3 UNK        -0.4254 
     60 C         -80.5053   24.5362  -76.6593 C.2       2 UNK         0.5004 
     61 O         -79.5578   25.2404  -77.0117 O.2       2 UNK        -0.5226 
     62 CA        -81.8589   25.2081  -76.3706 C.3       2 UNK         0.0269 
     63 CB        -83.0269   24.2213  -76.1415 C.3       2 UNK        -0.1926 
     64 N         -81.7536   26.1419  -75.2449 N.am      2 UNK        -0.4687 
     65 C         -81.3291   25.8799  -73.9991 C.2       1 UNK         0.5165 
     66 O         -80.9414   24.7663  -73.6378 O.2       1 UNK        -0.5079 
     67 H67       -84.0714   29.8956  -75.1707 H         1 UNK         0.0900 
     68 H68       -83.2495   30.9715  -74.0371 H         1 UNK         0.0900 
     69 H69       -84.3222   29.7069  -73.4334 H         1 UNK         0.0900 
     70 H70       -83.2067   27.9467  -72.6212 H         1 UNK         0.2959 
     71 H71       -80.3840   27.5613  -73.1615 H         1 UNK         0.1079 
     72 H72       -82.2255   25.9640  -71.3220 H         1 UNK         0.0837 
     73 H73       -80.4850   25.9075  -71.3250 H         1 UNK         0.0837 
     74 H74       -79.4878   28.5720  -68.8772 H         1 UNK         0.0685 
     75 H75       -79.3591   26.8973  -69.3523 H         1 UNK         0.0685 
     76 H76       -79.7897   29.6389  -71.8904 H         1 UNK         0.1434 
     77 H77       -75.7286   29.3941  -73.2316 H         1 UNK         0.1329 
     78 H78       -76.9940   27.1072  -69.8424 H         1 UNK         0.1335 
     79 H79       -74.8161   26.6503  -70.9569 H         1 UNK         0.0680 
     80 H80       -74.3204   27.6017  -72.3347 H         1 UNK         0.0680 
     81 H81       -71.6194   28.1480  -69.7067 H         1 UNK         0.1032 
     82 H82       -72.1251   27.2995  -71.1424 H         1 UNK         0.1032 
     83 H83       -71.5163   30.2974  -71.0092 H         1 UNK         0.0461 
     84 H84       -69.8523   28.9742  -73.6450 H         1 UNK         0.3453 
     85 H85       -68.3228   28.7267  -72.8377 H         1 UNK         0.3453 
     86 H86       -72.6105   28.6995  -73.1864 H         1 UNK         0.2984 
     87 H87       -73.7840   30.2660  -74.8047 H         1 UNK         0.0554 
     88 H88       -73.1773   31.6470  -76.7723 H         1 UNK         0.0847 
     89 H89       -71.5958   31.9967  -76.0729 H         1 UNK         0.0847 
     90 H90       -73.0583   32.5887  -75.2968 H         1 UNK         0.0847 
     91 H91       -71.4671   29.5636  -76.4549 H         1 UNK         0.3141 
     92 H92       -71.4851   27.4198  -77.3746 H         1 UNK         0.0743 
     93 H93       -69.7813   27.5381  -75.5083 H         1 UNK         0.0784 
     94 H94       -70.6030   26.2322  -74.6636 H         1 UNK         0.0784 
     95 H95       -69.8051   25.9342  -76.2058 H         1 UNK         0.0784 
     96 H96       -73.4258   25.8664  -76.0366 H         1 UNK         0.3213 
     97 H97       -73.1164   23.0420  -78.2859 H         1 UNK         0.0855 
     98 H98       -73.7881   23.4648  -75.3234 H         1 UNK         0.0814 
     99 H99       -72.4975   22.4391  -75.9344 H         1 UNK         0.0814 
    100 H100      -74.1708   22.0430  -76.2902 H         1 UNK         0.0814 
    101 H101      -75.4294   24.1619  -77.0775 H         1 UNK         0.3105 
    102 H102      -76.3302   26.4251  -79.6729 H         1 UNK         0.0547 
    103 H103      -78.4065   25.0147  -79.6819 H         1 UNK         0.0837 
    104 H104      -77.1097   24.2770  -80.6102 H         1 UNK         0.0837 
    105 H105      -77.4866   23.6690  -79.0072 H         1 UNK         0.0837 
    106 H106      -77.7438   25.6129  -77.3540 H         1 UNK         0.3020 
    107 H107      -76.1343   27.7426  -75.0152 H         1 UNK         0.1245 
    108 H108      -78.8297   28.2057  -74.9168 H         1 UNK         0.0781 
    109 H109      -78.6400   28.3384  -76.6316 H         1 UNK         0.0781 
    110 H110      -77.7857   31.5504  -73.5790 H         1 UNK         0.0836 
    111 H111      -79.2305   30.6440  -73.9581 H         1 UNK         0.0836 
    112 H112      -78.3609   25.8530  -75.0838 H         1 UNK         0.3022 
    113 H113      -76.4277   23.2429  -73.6211 H         1 UNK         0.0747 
    114 H114      -78.2505   23.4218  -71.8993 H         1 UNK         0.0793 
    115 H115      -78.5375   25.0930  -72.3869 H         1 UNK         0.0793 
    116 H116      -77.0039   24.6391  -71.6673 H         1 UNK         0.0793 
    117 H117      -79.2121   23.5250  -74.2908 H         1 UNK         0.3047 
    118 H118      -78.9330   22.4530  -77.6765 H         1 UNK         0.0822 
    119 H119      -78.6619   20.2987  -76.4343 H         1 UNK         0.0807 
    120 H120      -80.3231   20.5449  -76.9436 H         1 UNK         0.0807 
    121 H121      -79.8656   20.8144  -75.2609 H         1 UNK         0.0807 
    122 H122      -81.2450   22.7333  -76.1315 H         1 UNK         0.2946 
    123 H123      -82.0929   25.8028  -77.2553 H         1 UNK         0.1144 
    124 H124      -83.1499   23.5486  -76.9915 H         1 UNK         0.0793 
    125 H125      -83.9688   24.7576  -76.0254 H         1 UNK         0.0793 
    126 H126      -82.8887   23.6116  -75.2477 H         1 UNK         0.0793 
    127 H127      -81.9636   27.1112  -75.4538 H         1 UNK         0.2896 
@<TRIPOS>BOND
     1    1    2 1    
     2    1   67 1    
     3    1   68 1    
     4    1   69 1    
     5    2    3 2    
     6    2    4 am   BACKBONE|DICT|INTERRES
     7    4    5 1    
     8    4   70 1    
     9    5    6 1    
    10    5   65 1    
    11    5   71 1    
    12    6    7 1    
    13    6   72 1    
    14    6   73 1    
    15    7    8 1    
    16    8    9 1    
    17    8   74 1    
    18    8   75 1    
    19    9   10 ar   
    20    9   14 ar   
    21   10   11 ar   
    22   10   76 1    
    23   11   12 ar   
    24   11   48 1    
    25   12   13 ar   
    26   12   77 1    
    27   13   14 ar   
    28   13   15 1    
    29   14   78 1    
    30   15   16 1    
    31   15   79 1    
    32   15   80 1    
    33   16   17 1    
    34   17   18 1    
    35   17   81 1    
    36   17   82 1    
    37   18   19 1    
    38   18   22 1    
    39   18   83 1    
    40   19   20 am   BACKBONE|DICT|INTERRES
    41   19   21 2    
    42   20   84 1    
    43   20   85 1    
    44   22   23 am   BACKBONE|DICT|INTERRES
    45   22   86 1    
    46   23   24 2    
    47   23   25 1    
    48   25   26 1    
    49   25   27 1    
    50   25   87 1    
    51   26   88 1    
    52   26   89 1    
    53   26   90 1    
    54   27   28 am   BACKBONE|DICT|INTERRES
    55   27   91 1    
    56   28   29 2    
    57   28   30 1    
    58   30   31 1    
    59   30   32 1    
    60   30   92 1    
    61   31   93 1    
    62   31   94 1    
    63   31   95 1    
    64   32   33 am   BACKBONE|DICT|INTERRES
    65   32   96 1    
    66   33   34 2    
    67   33   35 1    
    68   35   36 1    
    69   35   37 1    
    70   35   97 1    
    71   36   98 1    
    72   36   99 1    
    73   36  100 1    
    74   37   38 am   BACKBONE|DICT|INTERRES
    75   37  101 1    
    76   38   39 2    
    77   38   40 1    
    78   40   41 1    
    79   40   42 1    
    80   40  102 1    
    81   41  103 1    
    82   41  104 1    
    83   41  105 1    
    84   42   43 am   BACKBONE|DICT|INTERRES
    85   42  106 1    
    86   43   44 2    
    87   43   45 1    
    88   45   46 1    
    89   45   49 1    
    90   45  107 1    
    91   46   47 1    
    92   46  108 1    
    93   46  109 1    
    94   47   48 1    
    95   48  110 1    
    96   48  111 1    
    97   49   50 am   BACKBONE|DICT|INTERRES
    98   49  112 1    
    99   50   51 2    
   100   50   52 1    
   101   52   53 1    
   102   52   54 1    
   103   52  113 1    
   104   53  114 1    
   105   53  115 1    
   106   53  116 1    
   107   54   55 am   BACKBONE|DICT|INTERRES
   108   54  117 1    
   109   55   56 2    
   110   55   57 1    
   111   57   58 1    
   112   57   59 1    
   113   57  118 1    
   114   58  119 1    
   115   58  120 1    
   116   58  121 1    
   117   59   60 am   BACKBONE|DICT|INTERRES
   118   59  122 1    
   119   60   61 2    
   120   60   62 1    
   121   62   63 1    
   122   62   64 1    
   123   62  123 1    
   124   63  124 1    
   125   63  125 1    
   126   63  126 1    
   127   64   65 am   BACKBONE|DICT|INTERRES
   128   64  127 1    
   129   65   66 2    
@<TRIPOS>SUBSTRUCTURE
     1 UNK         1 GROUP             0       ****    0 ROOT    
