@<TRIPOS>MOLECULE
3R135
127   129    1
SMALL
USER_CHARGES


@<TRIPOS>ATOM
      1 CA        -84.7652   24.0876  -69.4570 C.3       0 UNK        -0.1998 
      2 C         -84.6345   24.9725  -70.6874 C.2       0 UNK         0.4909 
      3 O         -85.4922   24.9248  -71.5695 O.2       0 UNK        -0.5240 
      4 N         -83.5704   25.7834  -70.7483 N.am      1 UNK        -0.4739 
      5 CA        -83.2414   26.6753  -71.8678 C.3       1 UNK         0.0864 
      6 C6        -82.1536   27.7194  -71.4885 C.3       11 UNK        -0.0881 
      7 S7        -80.7510   27.0646  -70.5045 S.3       11 UNK        -0.2682 
      8 C8        -79.4543   26.7805  -71.7496 C.3       11 UNK         0.0289 
      9 C9        -78.6179   28.0201  -72.0301 C.ar      11 UNK        -0.0687 
     10 C10       -79.0590   28.9784  -72.9459 C.ar      11 UNK        -0.0823 
     11 C11       -78.2869   30.1102  -73.2216 C.ar      11 UNK        -0.0830 
     12 C12       -77.0559   30.2757  -72.5813 C.ar      11 UNK        -0.1021 
     13 C13       -76.5835   29.3039  -71.6936 C.ar      11 UNK        -0.0753 
     14 C14       -77.3760   28.1869  -71.4101 C.ar      11 UNK        -0.0933 
     15 C15       -75.2108   29.4433  -71.0521 C.3       11 UNK         0.0166 
     16 S16       -73.9585   28.4765  -71.9563 S.3       11 UNK        -0.2615 
     17 C17       -73.6586   29.5328  -73.4203 C.3       11 UNK        -0.0865 
     18 CA        -72.1990   30.0351  -73.5594 C.3       10 UNK         0.0862 
     19 C         -71.7838   31.0196  -72.4287 C.2       10 UNK         0.5551 
     20 N         -72.3103   32.2369  -72.4504 N.am      10 UNK        -0.7319 
     21 O         -71.0142   30.6920  -71.5267 O.2       10 UNK        -0.5018 
     22 N         -71.2783   28.9073  -73.7363 N.am      10 UNK        -0.4509 
     23 C         -70.0392   28.9889  -74.2348 C.2       10 UNK         0.4899 
     24 O         -69.5185   30.0393  -74.6124 O.2       10 UNK        -0.4839 
     25 CA        -69.2426   27.6742  -74.3556 C.3       9 UNK         0.0222 
     26 CB        -68.2407   27.5501  -73.1958 C.3       9 UNK        -0.1966 
     27 N         -70.0725   26.4630  -74.4076 N.am      9 UNK        -0.4218 
     28 C         -70.9388   26.1593  -75.3855 C.2       9 UNK         0.5020 
     29 O         -71.1247   26.8705  -76.3761 O.2       9 UNK        -0.5274 
     30 CA        -71.7104   24.8386  -75.2197 C.3       8 UNK         0.0270 
     31 CB        -72.4016   24.7438  -73.8439 C.3       8 UNK        -0.1976 
     32 N         -72.7210   24.7099  -76.2734 N.am      8 UNK        -0.4313 
     33 C         -72.6545   23.8448  -77.2935 C.2       8 UNK         0.5041 
     34 O         -71.7481   23.0204  -77.4287 O.2       8 UNK        -0.5577 
     35 CA        -73.7812   23.8664  -78.3424 C.3       7 UNK         0.0284 
     36 CB        -74.7909   22.7364  -78.0781 C.3       7 UNK        -0.1958 
     37 N         -74.4963   25.1413  -78.4495 N.am      7 UNK        -0.4454 
     38 C         -74.0243   26.2136  -79.1029 C.2       7 UNK         0.5089 
     39 O         -72.8982   26.2683  -79.5977 O.2       7 UNK        -0.5125 
     40 CA        -74.9717   27.4123  -79.2789 C.3       6 UNK         0.0408 
     41 CB        -75.8565   27.2074  -80.5192 C.3       6 UNK        -0.1791 
     42 N         -75.8297   27.6071  -78.1108 N.am      6 UNK        -0.4762 
     43 C         -75.7205   28.6174  -77.2347 C.2       6 UNK         0.5007 
     44 O         -74.9226   29.5482  -77.3524 O.2       6 UNK        -0.5032 
     45 CA        -76.6492   28.5646  -75.9982 C.3       5 UNK         0.0783 
     46 C46       -77.9756   29.3268  -76.2666 C.3       11 UNK        -0.0857 
     47 S47       -77.8395   31.0843  -75.7922 S.3       11 UNK        -0.2512 
     48 C48       -78.7782   31.1403  -74.2298 C.3       11 UNK         0.0225 
     49 N         -76.8903   27.1995  -75.5145 N.am      5 UNK        -0.4615 
     50 C         -75.9351   26.3122  -75.1978 C.2       4 UNK         0.5053 
     51 O         -74.7337   26.5690  -75.2096 O.2       4 UNK        -0.5105 
     52 CA        -76.3718   24.8672  -74.8993 C.3       4 UNK         0.0263 
     53 CB        -76.4526   24.6424  -73.3826 C.3       4 UNK        -0.1981 
     54 N         -77.6398   24.4628  -75.5195 N.am      4 UNK        -0.4224 
     55 C         -77.9812   24.5756  -76.8130 C.2       3 UNK         0.4895 
     56 O         -77.2224   25.0221  -77.6762 O.2       3 UNK        -0.5091 
     57 CA        -79.4064   24.1500  -77.2247 C.3       3 UNK         0.0250 
     58 CB        -79.3433   22.9867  -78.2288 C.3       3 UNK        -0.1996 
     59 N         -80.3035   23.7770  -76.1203 N.am      3 UNK        -0.4254 
     60 C         -80.7326   24.5868  -75.1406 C.2       2 UNK         0.5004 
     61 O         -80.3874   25.7664  -75.0451 O.2       2 UNK        -0.5226 
     62 CA        -81.6438   23.9316  -74.0776 C.3       2 UNK         0.0269 
     63 CB        -80.9381   22.7388  -73.4032 C.3       2 UNK        -0.1926 
     64 N         -82.0917   24.8385  -73.0156 N.am      2 UNK        -0.4687 
     65 C         -82.8939   25.9022  -73.1597 C.2       1 UNK         0.5165 
     66 O         -83.3878   26.2537  -74.2325 O.2       1 UNK        -0.5079 
     67 H67       -85.6978   24.3038  -68.9366 H         1 UNK         0.0900 
     68 H68       -84.7729   23.0379  -69.7492 H         1 UNK         0.0900 
     69 H69       -83.9435   24.2387  -68.7569 H         1 UNK         0.0900 
     70 H70       -82.8994   25.7871  -69.9920 H         1 UNK         0.2959 
     71 H71       -84.1510   27.2352  -72.0986 H         1 UNK         0.1079 
     72 H72       -81.7944   28.2455  -72.3716 H         1 UNK         0.0837 
     73 H73       -82.6193   28.4929  -70.8760 H         1 UNK         0.0837 
     74 H74       -78.8154   25.9753  -71.3857 H         1 UNK         0.0685 
     75 H75       -79.8963   26.4187  -72.6735 H         1 UNK         0.0685 
     76 H76       -79.9972   28.8367  -73.4616 H         1 UNK         0.1434 
     77 H77       -76.4567   31.1488  -72.7992 H         1 UNK         0.1329 
     78 H78       -77.0136   27.4363  -70.7210 H         1 UNK         0.1335 
     79 H79       -74.9065   30.4900  -71.0012 H         1 UNK         0.0680 
     80 H80       -75.2522   29.0878  -70.0215 H         1 UNK         0.0680 
     81 H81       -73.9173   28.9504  -74.3051 H         1 UNK         0.1032 
     82 H82       -74.3443   30.3793  -73.4250 H         1 UNK         0.1032 
     83 H83       -72.1538   30.6077  -74.4883 H         1 UNK         0.0461 
     84 H84       -72.9351   32.5255  -73.1866 H         1 UNK         0.3453 
     85 H85       -72.0613   32.8891  -71.7232 H         1 UNK         0.3453 
     86 H86       -71.6167   28.0122  -73.4177 H         1 UNK         0.2984 
     87 H87       -68.6774   27.7244  -75.2885 H         1 UNK         0.0554 
     88 H88       -67.5849   28.4210  -73.1522 H         1 UNK         0.0847 
     89 H89       -67.6023   26.6739  -73.3112 H         1 UNK         0.0847 
     90 H90       -68.7456   27.4765  -72.2317 H         1 UNK         0.0847 
     91 H91       -69.9737   25.8184  -73.6365 H         1 UNK         0.3141 
     92 H92       -70.9830   24.0274  -75.2892 H         1 UNK         0.0743 
     93 H93       -72.9677   25.6445  -73.6051 H         1 UNK         0.0784 
     94 H94       -73.0889   23.8986  -73.8025 H         1 UNK         0.0784 
     95 H95       -71.6751   24.5990  -73.0442 H         1 UNK         0.0784 
     96 H96       -73.4563   25.4102  -76.2533 H         1 UNK         0.3213 
     97 H97       -73.3141   23.6642  -79.3091 H         1 UNK         0.0855 
     98 H98       -75.2934   22.8524  -77.1190 H         1 UNK         0.0814 
     99 H99       -74.2940   21.7654  -78.0673 H         1 UNK         0.0814 
    100 H100      -75.5565   22.6984  -78.8534 H         1 UNK         0.0814 
    101 H101      -75.4578   25.1510  -78.1165 H         1 UNK         0.3105 
    102 H102      -74.3536   28.2960  -79.4503 H         1 UNK         0.0547 
    103 H103      -75.2486   27.0568  -81.4124 H         1 UNK         0.0837 
    104 H104      -76.5056   26.3368  -80.4146 H         1 UNK         0.0837 
    105 H105      -76.4889   28.0763  -80.7013 H         1 UNK         0.0837 
    106 H106      -76.4943   26.8659  -77.9113 H         1 UNK         0.3020 
    107 H107      -76.1168   29.0607  -75.1847 H         1 UNK         0.1245 
    108 H108      -78.8038   28.8800  -75.7161 H         1 UNK         0.0781 
    109 H109      -78.2766   29.2661  -77.3146 H         1 UNK         0.0781 
    110 H110      -79.8377   30.9953  -74.4471 H         1 UNK         0.0836 
    111 H111      -78.6910   32.1388  -73.7991 H         1 UNK         0.0836 
    112 H112      -77.8532   26.8969  -75.4734 H         1 UNK         0.3022 
    113 H113      -75.5940   24.2125  -75.2930 H         1 UNK         0.0747 
    114 H114      -76.6519   23.5980  -73.1423 H         1 UNK         0.0793 
    115 H115      -75.5138   24.9127  -72.8964 H         1 UNK         0.0793 
    116 H116      -77.2359   25.2500  -72.9325 H         1 UNK         0.0793 
    117 H117      -78.3425   24.0998  -74.8937 H         1 UNK         0.3047 
    118 H118      -79.8510   25.0106  -77.7288 H         1 UNK         0.0822 
    119 H119      -80.3332   22.7362  -78.6108 H         1 UNK         0.0807 
    120 H120      -78.9174   22.0887  -77.7795 H         1 UNK         0.0807 
    121 H121      -78.7245   23.2433  -79.0902 H         1 UNK         0.0807 
    122 H122      -80.6221   22.8184  -76.1206 H         1 UNK         0.2946 
    123 H123      -82.5340   23.5687  -74.5963 H         1 UNK         0.1144 
    124 H124      -81.5842   22.2643  -72.6640 H         1 UNK         0.0793 
    125 H125      -80.0230   23.0470  -72.8953 H         1 UNK         0.0793 
    126 H126      -80.6683   21.9649  -74.1225 H         1 UNK         0.0793 
    127 H127      -81.7475   24.6449  -72.0868 H         1 UNK         0.2896 
@<TRIPOS>BOND
     1    1    2 1    
     2    1   67 1    
     3    1   68 1    
     4    1   69 1    
     5    2    3 2    
     6    2    4 am   BACKBONE|DICT|INTERRES
     7    4    5 1    
     8    4   70 1    
     9    5    6 1    
    10    5   65 1    
    11    5   71 1    
    12    6    7 1    
    13    6   72 1    
    14    6   73 1    
    15    7    8 1    
    16    8    9 1    
    17    8   74 1    
    18    8   75 1    
    19    9   10 ar   
    20    9   14 ar   
    21   10   11 ar   
    22   10   76 1    
    23   11   12 ar   
    24   11   48 1    
    25   12   13 ar   
    26   12   77 1    
    27   13   14 ar   
    28   13   15 1    
    29   14   78 1    
    30   15   16 1    
    31   15   79 1    
    32   15   80 1    
    33   16   17 1    
    34   17   18 1    
    35   17   81 1    
    36   17   82 1    
    37   18   19 1    
    38   18   22 1    
    39   18   83 1    
    40   19   20 am   BACKBONE|DICT|INTERRES
    41   19   21 2    
    42   20   84 1    
    43   20   85 1    
    44   22   23 am   BACKBONE|DICT|INTERRES
    45   22   86 1    
    46   23   24 2    
    47   23   25 1    
    48   25   26 1    
    49   25   27 1    
    50   25   87 1    
    51   26   88 1    
    52   26   89 1    
    53   26   90 1    
    54   27   28 am   BACKBONE|DICT|INTERRES
    55   27   91 1    
    56   28   29 2    
    57   28   30 1    
    58   30   31 1    
    59   30   32 1    
    60   30   92 1    
    61   31   93 1    
    62   31   94 1    
    63   31   95 1    
    64   32   33 am   BACKBONE|DICT|INTERRES
    65   32   96 1    
    66   33   34 2    
    67   33   35 1    
    68   35   36 1    
    69   35   37 1    
    70   35   97 1    
    71   36   98 1    
    72   36   99 1    
    73   36  100 1    
    74   37   38 am   BACKBONE|DICT|INTERRES
    75   37  101 1    
    76   38   39 2    
    77   38   40 1    
    78   40   41 1    
    79   40   42 1    
    80   40  102 1    
    81   41  103 1    
    82   41  104 1    
    83   41  105 1    
    84   42   43 am   BACKBONE|DICT|INTERRES
    85   42  106 1    
    86   43   44 2    
    87   43   45 1    
    88   45   46 1    
    89   45   49 1    
    90   45  107 1    
    91   46   47 1    
    92   46  108 1    
    93   46  109 1    
    94   47   48 1    
    95   48  110 1    
    96   48  111 1    
    97   49   50 am   BACKBONE|DICT|INTERRES
    98   49  112 1    
    99   50   51 2    
   100   50   52 1    
   101   52   53 1    
   102   52   54 1    
   103   52  113 1    
   104   53  114 1    
   105   53  115 1    
   106   53  116 1    
   107   54   55 am   BACKBONE|DICT|INTERRES
   108   54  117 1    
   109   55   56 2    
   110   55   57 1    
   111   57   58 1    
   112   57   59 1    
   113   57  118 1    
   114   58  119 1    
   115   58  120 1    
   116   58  121 1    
   117   59   60 am   BACKBONE|DICT|INTERRES
   118   59  122 1    
   119   60   61 2    
   120   60   62 1    
   121   62   63 1    
   122   62   64 1    
   123   62  123 1    
   124   63  124 1    
   125   63  125 1    
   126   63  126 1    
   127   64   65 am   BACKBONE|DICT|INTERRES
   128   64  127 1    
   129   65   66 2    
@<TRIPOS>SUBSTRUCTURE
     1 UNK         1 GROUP             0       ****    0 ROOT    
