@<TRIPOS>MOLECULE
3R135
127   129    1
SMALL
USER_CHARGES


@<TRIPOS>ATOM
      1 CA        -80.7780   22.1633  -70.0147 C.3       0 UNK        -0.1998 
      2 C         -81.4877   23.3026  -70.7312 C.2       0 UNK         0.4909 
      3 O         -82.6949   23.2221  -70.9633 O.2       0 UNK        -0.5240 
      4 N         -80.7482   24.3652  -71.0741 N.am      1 UNK        -0.4739 
      5 CA        -81.2416   25.5136  -71.8431 C.3       1 UNK         0.0864 
      6 C6        -80.3744   26.7733  -71.5828 C.3       11 UNK        -0.0881 
      7 S7        -81.3531   28.3090  -71.6628 S.3       11 UNK        -0.2682 
      8 C8        -80.2456   29.4697  -70.8026 C.3       11 UNK         0.0289 
      9 C9        -78.9460   29.6814  -71.5656 C.ar      11 UNK        -0.0687 
     10 C10       -78.9572   30.3652  -72.7846 C.ar      11 UNK        -0.0823 
     11 C11       -77.7727   30.5716  -73.4972 C.ar      11 UNK        -0.0830 
     12 C12       -76.5669   30.0998  -72.9698 C.ar      11 UNK        -0.1021 
     13 C13       -76.5430   29.4099  -71.7548 C.ar      11 UNK        -0.0753 
     14 C14       -77.7353   29.2017  -71.0554 C.ar      11 UNK        -0.0933 
     15 C15       -75.2227   28.8948  -71.2088 C.3       11 UNK         0.0166 
     16 S16       -74.2926   30.2351  -70.4052 S.3       11 UNK        -0.2615 
     17 C17       -72.5976   29.5597  -70.4315 C.3       11 UNK        -0.0865 
     18 CA        -71.7437   30.1624  -71.5799 C.3       10 UNK         0.0862 
     19 C         -70.2400   29.7868  -71.4240 C.2       10 UNK         0.5551 
     20 N         -69.6010   29.1596  -72.4044 N.am      10 UNK        -0.7319 
     21 O         -69.6383   30.0799  -70.3938 O.2       10 UNK        -0.5018 
     22 N         -72.3146   29.8399  -72.8980 N.am      10 UNK        -0.4509 
     23 C         -72.1638   30.5561  -74.0158 C.2       10 UNK         0.4899 
     24 O         -71.5364   31.6146  -74.0734 O.2       10 UNK        -0.4839 
     25 CA        -72.8024   29.9578  -75.2857 C.3       9 UNK         0.0222 
     26 CB        -72.7132   30.9022  -76.4983 C.3       9 UNK        -0.1966 
     27 N         -72.2052   28.6648  -75.6380 N.am      9 UNK        -0.4218 
     28 C         -72.4668   27.5043  -75.0234 C.2       9 UNK         0.5020 
     29 O         -73.2409   27.4008  -74.0703 O.2       9 UNK        -0.5274 
     30 CA        -71.7110   26.2682  -75.5194 C.3       8 UNK         0.0270 
     31 CB        -70.9487   25.5829  -74.3682 C.3       8 UNK        -0.1976 
     32 N         -72.6592   25.3397  -76.1299 N.am      8 UNK        -0.4313 
     33 C         -72.3324   24.4014  -77.0288 C.2       8 UNK         0.5041 
     34 O         -71.1788   24.1896  -77.4071 O.2       8 UNK        -0.5577 
     35 CA        -73.4782   23.5700  -77.6327 C.3       7 UNK         0.0284 
     36 CB        -74.0025   22.5290  -76.6302 C.3       7 UNK        -0.1958 
     37 N         -74.5790   24.4059  -78.1147 N.am      7 UNK        -0.4454 
     38 C         -74.5005   25.2337  -79.1675 C.2       7 UNK         0.5089 
     39 O         -73.5162   25.3218  -79.9022 O.2       7 UNK        -0.5125 
     40 CA        -75.7198   26.1320  -79.4394 C.3       6 UNK         0.0408 
     41 CB        -76.7310   25.4299  -80.3599 C.3       6 UNK        -0.1791 
     42 N         -76.3781   26.5567  -78.2019 N.am      6 UNK        -0.4762 
     43 C         -75.8552   27.4459  -77.3432 C.2       6 UNK         0.5007 
     44 O         -74.8010   28.0460  -77.5497 O.2       6 UNK        -0.5032 
     45 CA        -76.6251   27.6817  -76.0258 C.3       5 UNK         0.0783 
     46 C46       -77.6795   28.8061  -76.1896 C.3       11 UNK        -0.0857 
     47 S47       -76.9098   30.4636  -76.1680 S.3       11 UNK        -0.2512 
     48 C48       -77.8105   31.3140  -74.8285 C.3       11 UNK         0.0225 
     49 N         -77.2234   26.4424  -75.5160 N.am      5 UNK        -0.4615 
     50 C         -76.5157   25.3939  -75.0646 C.2       4 UNK         0.5053 
     51 O         -75.2889   25.3781  -75.0021 O.2       4 UNK        -0.5105 
     52 CA        -77.2876   24.1166  -74.6839 C.3       4 UNK         0.0263 
     53 CB        -77.6565   24.1333  -73.1936 C.3       4 UNK        -0.1981 
     54 N         -78.4866   23.9076  -75.4997 N.am      4 UNK        -0.4224 
     55 C         -78.4638   23.7606  -76.8339 C.2       3 UNK         0.4895 
     56 O         -77.4209   23.6661  -77.4816 O.2       3 UNK        -0.5091 
     57 CA        -79.8040   23.7791  -77.5925 C.3       3 UNK         0.0250 
     58 CB        -80.1980   22.3552  -78.0147 C.3       3 UNK        -0.1996 
     59 N         -80.9181   24.3897  -76.8602 N.am      3 UNK        -0.4254 
     60 C         -80.9653   25.6420  -76.3807 C.2       2 UNK         0.5004 
     61 O         -80.0539   26.4614  -76.5093 O.2       2 UNK        -0.5226 
     62 CA        -82.2149   26.0274  -75.5638 C.3       2 UNK         0.0269 
     63 CB        -83.4333   25.1104  -75.8169 C.3       2 UNK        -0.1926 
     64 N         -81.9415   26.1040  -74.1215 N.am      2 UNK        -0.4687 
     65 C         -81.3519   25.1779  -73.3493 C.2       1 UNK         0.5165 
     66 O         -80.8939   24.1161  -73.7834 O.2       1 UNK        -0.5079 
     67 H67       -80.8631   21.2454  -70.5958 H         1 UNK         0.0900 
     68 H68       -81.2316   21.9929  -69.0386 H         1 UNK         0.0900 
     69 H69       -79.7188   22.3722  -69.8649 H         1 UNK         0.0900 
     70 H70       -79.7579   24.3590  -70.8787 H         1 UNK         0.2959 
     71 H71       -82.2571   25.7143  -71.4925 H         1 UNK         0.1079 
     72 H72       -79.9364   26.7264  -70.5841 H         1 UNK         0.0837 
     73 H73       -79.5322   26.8460  -72.2736 H         1 UNK         0.0837 
     74 H74       -80.7558   30.4275  -70.6910 H         1 UNK         0.0685 
     75 H75       -80.0530   29.1062  -69.7919 H         1 UNK         0.0685 
     76 H76       -79.8962   30.7302  -73.1782 H         1 UNK         0.1434 
     77 H77       -75.6435   30.2663  -73.5065 H         1 UNK         0.1329 
     78 H78       -77.7191   28.6716  -70.1129 H         1 UNK         0.1335 
     79 H79       -75.3850   28.0869  -70.4938 H         1 UNK         0.0680 
     80 H80       -74.6410   28.4695  -72.0268 H         1 UNK         0.0680 
     81 H81       -72.1495   29.7873  -69.4622 H         1 UNK         0.1032 
     82 H82       -72.6265   28.4705  -70.4988 H         1 UNK         0.1032 
     83 H83       -71.7777   31.2480  -71.4687 H         1 UNK         0.0461 
     84 H84       -70.0796   28.9372  -73.2608 H         1 UNK         0.3453 
     85 H85       -68.6266   28.9284  -72.2909 H         1 UNK         0.3453 
     86 H86       -72.7930   28.9476  -72.9812 H         1 UNK         0.2984 
     87 H87       -73.8624   29.8023  -75.0746 H         1 UNK         0.0554 
     88 H88       -71.6800   31.0968  -76.7884 H         1 UNK         0.0847 
     89 H89       -73.1787   31.8638  -76.2780 H         1 UNK         0.0847 
     90 H90       -73.2339   30.4852  -77.3609 H         1 UNK         0.0847 
     91 H91       -71.5463   28.6710  -76.4034 H         1 UNK         0.3141 
     92 H92       -70.9879   26.5832  -76.2750 H         1 UNK         0.0743 
     93 H93       -71.6308   25.1974  -73.6091 H         1 UNK         0.0784 
     94 H94       -70.3458   24.7496  -74.7290 H         1 UNK         0.0784 
     95 H95       -70.2719   26.2819  -73.8753 H         1 UNK         0.0784 
     96 H96       -73.6295   25.4397  -75.8270 H         1 UNK         0.3213 
     97 H97       -73.0770   23.0288  -78.4926 H         1 UNK         0.0855 
     98 H98       -74.3712   22.9915  -75.7155 H         1 UNK         0.0814 
     99 H99       -73.2101   21.8365  -76.3436 H         1 UNK         0.0814 
    100 H100      -74.8127   21.9374  -77.0573 H         1 UNK         0.0814 
    101 H101      -75.4596   24.3500  -77.6148 H         1 UNK         0.3105 
    102 H102      -75.3645   27.0258  -79.9569 H         1 UNK         0.0547 
    103 H103      -76.2692   25.1721  -81.3138 H         1 UNK         0.0837 
    104 H104      -77.1087   24.5045  -79.9259 H         1 UNK         0.0837 
    105 H105      -77.5841   26.0724  -80.5777 H         1 UNK         0.0837 
    106 H106      -77.2286   26.0753  -77.9452 H         1 UNK         0.3020 
    107 H107      -75.8918   27.9999  -75.2796 H         1 UNK         0.1245 
    108 H108      -78.4146   28.7457  -75.3860 H         1 UNK         0.0781 
    109 H109      -78.2524   28.6874  -77.1115 H         1 UNK         0.0781 
    110 H110      -78.8399   31.4705  -75.1547 H         1 UNK         0.0836 
    111 H111      -77.3784   32.3057  -74.6894 H         1 UNK         0.0836 
    112 H112      -78.2314   26.3631  -75.6059 H         1 UNK         0.3022 
    113 H113      -76.6264   23.2655  -74.8568 H         1 UNK         0.0747 
    114 H114      -78.1883   23.2267  -72.9039 H         1 UNK         0.0793 
    115 H115      -76.7617   24.1996  -72.5731 H         1 UNK         0.0793 
    116 H116      -78.2854   24.9871  -72.9480 H         1 UNK         0.0793 
    117 H117      -79.3837   23.9607  -75.0237 H         1 UNK         0.3047 
    118 H118      -79.6475   24.3730  -78.4953 H         1 UNK         0.0822 
    119 H119      -81.0878   22.3584  -78.6446 H         1 UNK         0.0807 
    120 H120      -80.3979   21.7195  -77.1511 H         1 UNK         0.0807 
    121 H121      -79.3996   21.8828  -78.5893 H         1 UNK         0.0807 
    122 H122      -81.7007   23.7852  -76.6561 H         1 UNK         0.2946 
    123 H123      -82.4843   27.0337  -75.8894 H         1 UNK         0.1144 
    124 H124      -84.3238   25.5065  -75.3285 H         1 UNK         0.0793 
    125 H125      -83.2786   24.0994  -75.4380 H         1 UNK         0.0793 
    126 H126      -83.6621   25.0392  -76.8813 H         1 UNK         0.0793 
    127 H127      -82.2151   26.9702  -73.6751 H         1 UNK         0.2896 
@<TRIPOS>BOND
     1    1    2 1    
     2    1   67 1    
     3    1   68 1    
     4    1   69 1    
     5    2    3 2    
     6    2    4 am   BACKBONE|DICT|INTERRES
     7    4    5 1    
     8    4   70 1    
     9    5    6 1    
    10    5   65 1    
    11    5   71 1    
    12    6    7 1    
    13    6   72 1    
    14    6   73 1    
    15    7    8 1    
    16    8    9 1    
    17    8   74 1    
    18    8   75 1    
    19    9   10 ar   
    20    9   14 ar   
    21   10   11 ar   
    22   10   76 1    
    23   11   12 ar   
    24   11   48 1    
    25   12   13 ar   
    26   12   77 1    
    27   13   14 ar   
    28   13   15 1    
    29   14   78 1    
    30   15   16 1    
    31   15   79 1    
    32   15   80 1    
    33   16   17 1    
    34   17   18 1    
    35   17   81 1    
    36   17   82 1    
    37   18   19 1    
    38   18   22 1    
    39   18   83 1    
    40   19   20 am   BACKBONE|DICT|INTERRES
    41   19   21 2    
    42   20   84 1    
    43   20   85 1    
    44   22   23 am   BACKBONE|DICT|INTERRES
    45   22   86 1    
    46   23   24 2    
    47   23   25 1    
    48   25   26 1    
    49   25   27 1    
    50   25   87 1    
    51   26   88 1    
    52   26   89 1    
    53   26   90 1    
    54   27   28 am   BACKBONE|DICT|INTERRES
    55   27   91 1    
    56   28   29 2    
    57   28   30 1    
    58   30   31 1    
    59   30   32 1    
    60   30   92 1    
    61   31   93 1    
    62   31   94 1    
    63   31   95 1    
    64   32   33 am   BACKBONE|DICT|INTERRES
    65   32   96 1    
    66   33   34 2    
    67   33   35 1    
    68   35   36 1    
    69   35   37 1    
    70   35   97 1    
    71   36   98 1    
    72   36   99 1    
    73   36  100 1    
    74   37   38 am   BACKBONE|DICT|INTERRES
    75   37  101 1    
    76   38   39 2    
    77   38   40 1    
    78   40   41 1    
    79   40   42 1    
    80   40  102 1    
    81   41  103 1    
    82   41  104 1    
    83   41  105 1    
    84   42   43 am   BACKBONE|DICT|INTERRES
    85   42  106 1    
    86   43   44 2    
    87   43   45 1    
    88   45   46 1    
    89   45   49 1    
    90   45  107 1    
    91   46   47 1    
    92   46  108 1    
    93   46  109 1    
    94   47   48 1    
    95   48  110 1    
    96   48  111 1    
    97   49   50 am   BACKBONE|DICT|INTERRES
    98   49  112 1    
    99   50   51 2    
   100   50   52 1    
   101   52   53 1    
   102   52   54 1    
   103   52  113 1    
   104   53  114 1    
   105   53  115 1    
   106   53  116 1    
   107   54   55 am   BACKBONE|DICT|INTERRES
   108   54  117 1    
   109   55   56 2    
   110   55   57 1    
   111   57   58 1    
   112   57   59 1    
   113   57  118 1    
   114   58  119 1    
   115   58  120 1    
   116   58  121 1    
   117   59   60 am   BACKBONE|DICT|INTERRES
   118   59  122 1    
   119   60   61 2    
   120   60   62 1    
   121   62   63 1    
   122   62   64 1    
   123   62  123 1    
   124   63  124 1    
   125   63  125 1    
   126   63  126 1    
   127   64   65 am   BACKBONE|DICT|INTERRES
   128   64  127 1    
   129   65   66 2    
@<TRIPOS>SUBSTRUCTURE
     1 UNK         1 GROUP             0       ****    0 ROOT    
