@<TRIPOS>MOLECULE
3R135
127   129    1
SMALL
USER_CHARGES


@<TRIPOS>ATOM
      1 CA        -79.2458   20.9915  -70.7676 C.3       0 UNK        -0.1998 
      2 C         -80.4571   21.8762  -71.0228 C.2       0 UNK         0.4909 
      3 O         -81.5818   21.3760  -71.0726 O.2       0 UNK        -0.5240 
      4 N         -80.2339   23.1870  -71.1749 N.am      1 UNK        -0.4739 
      5 CA        -81.2524   24.1822  -71.5252 C.3       1 UNK         0.0864 
      6 C6        -80.8753   25.5841  -70.9762 C.3       11 UNK        -0.0881 
      7 S7        -79.3517   26.2951  -71.6858 S.3       11 UNK        -0.2682 
      8 C8        -79.2525   27.8449  -70.7404 C.3       11 UNK         0.0289 
      9 C9        -78.4907   28.9079  -71.5134 C.ar      11 UNK        -0.0687 
     10 C10       -79.0867   29.5071  -72.6252 C.ar      11 UNK        -0.0823 
     11 C11       -78.4116   30.4917  -73.3497 C.ar      11 UNK        -0.0830 
     12 C12       -77.1337   30.8896  -72.9452 C.ar      11 UNK        -0.1021 
     13 C13       -76.5309   30.3050  -71.8267 C.ar      11 UNK        -0.0753 
     14 C14       -77.2111   29.3088  -71.1175 C.ar      11 UNK        -0.0933 
     15 C15       -75.1579   30.7686  -71.3666 C.3       11 UNK         0.0166 
     16 S16       -73.8414   29.6784  -71.9843 S.3       11 UNK        -0.2615 
     17 C17       -72.3719   30.4648  -71.2386 C.3       11 UNK        -0.0865 
     18 CA        -71.4029   31.0549  -72.2966 C.3       10 UNK         0.0862 
     19 C         -70.3113   31.9282  -71.6078 C.2       10 UNK         0.5551 
     20 N         -69.0399   31.5462  -71.6258 N.am      10 UNK        -0.7319 
     21 O         -70.6288   32.9745  -71.0476 O.2       10 UNK        -0.5018 
     22 N         -70.8848   30.0069  -73.1938 N.am      10 UNK        -0.4509 
     23 C         -70.2723   30.2239  -74.3659 C.2       10 UNK         0.4899 
     24 O         -70.0995   31.3411  -74.8538 O.2       10 UNK        -0.4839 
     25 CA        -69.7445   28.9892  -75.1196 C.3       9 UNK         0.0222 
     26 CB        -68.2466   28.7901  -74.8340 C.3       9 UNK        -0.1966 
     27 N         -70.4675   27.7568  -74.7885 N.am      9 UNK        -0.4218 
     28 C         -71.6771   27.4415  -75.2694 C.2       9 UNK         0.5020 
     29 O         -72.3038   28.1430  -76.0662 O.2       9 UNK        -0.5274 
     30 CA        -72.2966   26.1394  -74.7369 C.3       8 UNK         0.0270 
     31 CB        -73.1539   26.4181  -73.4921 C.3       8 UNK        -0.1976 
     32 N         -73.1268   25.4830  -75.7457 N.am      8 UNK        -0.4313 
     33 C         -72.6502   24.7999  -76.7941 C.2       8 UNK         0.5041 
     34 O         -71.4497   24.6293  -77.0137 O.2       8 UNK        -0.5577 
     35 CA        -73.6843   24.1796  -77.7461 C.3       7 UNK         0.0284 
     36 CB        -74.2746   22.8951  -77.1412 C.3       7 UNK        -0.1958 
     37 N         -74.7632   25.1109  -78.0801 N.am      7 UNK        -0.4454 
     38 C         -74.6609   26.0906  -78.9887 C.2       7 UNK         0.5089 
     39 O         -73.6445   26.3094  -79.6488 O.2       7 UNK        -0.5125 
     40 CA        -75.9087   26.9578  -79.2293 C.3       6 UNK         0.0408 
     41 CB        -76.7250   26.4060  -80.4090 C.3       6 UNK        -0.1791 
     42 N         -76.7682   27.0485  -78.0472 N.am      6 UNK        -0.4762 
     43 C         -76.5538   27.8977  -77.0291 C.2       6 UNK         0.5007 
     44 O         -75.6264   28.7064  -77.0073 O.2       6 UNK        -0.5032 
     45 CA        -77.5289   27.8237  -75.8282 C.3       5 UNK         0.0783 
     46 C46       -78.7696   28.7264  -76.0619 C.3       11 UNK        -0.0857 
     47 S47       -78.3785   30.5119  -76.1243 S.3       11 UNK        -0.2512 
     48 C48       -79.0732   31.1307  -74.5608 C.3       11 UNK         0.0225 
     49 N         -77.9395   26.4460  -75.5258 N.am      5 UNK        -0.4615 
     50 C         -77.1093   25.4213  -75.2706 C.2       4 UNK         0.5053 
     51 O         -75.8942   25.5486  -75.1306 O.2       4 UNK        -0.5105 
     52 CA        -77.7000   23.9971  -75.2602 C.3       4 UNK         0.0263 
     53 CB        -77.7801   23.4444  -73.8314 C.3       4 UNK        -0.1981 
     54 N         -79.0044   23.8876  -75.9216 N.am      4 UNK        -0.4224 
     55 C         -79.2116   24.1447  -77.2241 C.2       3 UNK         0.4895 
     56 O         -78.3049   24.4378  -78.0052 O.2       3 UNK        -0.5091 
     57 CA        -80.6597   24.1332  -77.7469 C.3       3 UNK         0.0250 
     58 CB        -80.9335   22.8401  -78.5309 C.3       3 UNK        -0.1996 
     59 N         -81.6877   24.2962  -76.7147 N.am      3 UNK        -0.4254 
     60 C         -81.8216   25.3444  -75.8885 C.2       2 UNK         0.5004 
     61 O         -81.0728   26.3230  -75.8967 O.2       2 UNK        -0.5226 
     62 CA        -82.9543   25.2687  -74.8433 C.3       2 UNK         0.0269 
     63 CB        -84.0193   24.1904  -75.1493 C.3       2 UNK        -0.1926 
     64 N         -82.4492   25.0928  -73.4738 N.am      2 UNK        -0.4687 
     65 C         -81.5737   24.1701  -73.0415 C.2       1 UNK         0.5165 
     66 O         -81.0397   23.3409  -73.7856 O.2       1 UNK        -0.5079 
     67 H67       -79.3506   20.4764  -69.8131 H         1 UNK         0.0900 
     68 H68       -79.1587   20.2414  -71.5532 H         1 UNK         0.0900 
     69 H69       -78.3195   21.5655  -70.7442 H         1 UNK         0.0900 
     70 H70       -79.2886   23.5399  -71.1401 H         1 UNK         0.2959 
     71 H71       -82.1812   23.8896  -71.0299 H         1 UNK         0.1079 
     72 H72       -81.6937   26.2898  -71.1268 H         1 UNK         0.0837 
     73 H73       -80.7464   25.5221  -69.8941 H         1 UNK         0.0837 
     74 H74       -80.2558   28.2170  -70.5273 H         1 UNK         0.0685 
     75 H75       -78.7834   27.6478  -69.7752 H         1 UNK         0.0685 
     76 H76       -80.0771   29.1957  -72.9288 H         1 UNK         0.1434 
     77 H77       -76.6103   31.6555  -73.5015 H         1 UNK         0.1329 
     78 H78       -76.7455   28.8530  -70.2543 H         1 UNK         0.1335 
     79 H79       -74.9688   31.7888  -71.7048 H         1 UNK         0.0680 
     80 H80       -75.1270   30.7929  -70.2760 H         1 UNK         0.0680 
     81 H81       -72.7003   31.2417  -70.5451 H         1 UNK         0.1032 
     82 H82       -71.8579   29.7224  -70.6253 H         1 UNK         0.1032 
     83 H83       -71.9794   31.7443  -72.9168 H         1 UNK         0.0461 
     84 H84       -68.3441   32.1223  -71.1787 H         1 UNK         0.3453 
     85 H85       -68.7704   30.6911  -72.0836 H         1 UNK         0.3453 
     86 H86       -70.9971   29.0569  -72.8759 H         1 UNK         0.2984 
     87 H87       -69.8597   29.1827  -76.1884 H         1 UNK         0.0554 
     88 H88       -67.6782   29.6854  -75.0905 H         1 UNK         0.0847 
     89 H89       -67.8359   27.9703  -75.4238 H         1 UNK         0.0847 
     90 H90       -68.0572   28.5749  -73.7817 H         1 UNK         0.0847 
     91 H91       -70.0164   27.1213  -74.1453 H         1 UNK         0.3141 
     92 H92       -71.4938   25.4538  -74.4566 H         1 UNK         0.0743 
     93 H93       -73.5882   25.5005  -73.0946 H         1 UNK         0.0784 
     94 H94       -72.5602   26.8678  -72.6957 H         1 UNK         0.0784 
     95 H95       -73.9736   27.1027  -73.7165 H         1 UNK         0.0784 
     96 H96       -74.1346   25.5813  -75.6328 H         1 UNK         0.3213 
     97 H97       -73.1682   23.9061  -78.6694 H         1 UNK         0.0855 
     98 H98       -74.7286   23.0761  -76.1669 H         1 UNK         0.0814 
     99 H99       -73.4960   22.1449  -76.9971 H         1 UNK         0.0814 
    100 H100      -75.0310   22.4561  -77.7922 H         1 UNK         0.0814 
    101 H101      -75.6327   25.0172  -77.5754 H         1 UNK         0.3105 
    102 H102      -75.5698   27.9604  -79.4994 H         1 UNK         0.0547 
    103 H103      -76.1221   26.3741  -81.3175 H         1 UNK         0.0837 
    104 H104      -77.0789   25.3921  -80.2194 H         1 UNK         0.0837 
    105 H105      -77.5930   27.0310  -80.6190 H         1 UNK         0.0837 
    106 H106      -77.5222   26.3726  -77.9816 H         1 UNK         0.3020 
    107 H107      -76.9919   28.1918  -74.9504 H         1 UNK         0.1245 
    108 H108      -79.5071   28.5558  -75.2771 H         1 UNK         0.0781 
    109 H109      -79.2727   28.4524  -76.9913 H         1 UNK         0.0781 
    110 H110      -80.1508   30.9592  -74.5531 H         1 UNK         0.0836 
    111 H111      -78.9384   32.2125  -74.5182 H         1 UNK         0.0836 
    112 H112      -78.9310   26.2526  -75.6143 H         1 UNK         0.3022 
    113 H113      -77.0119   23.3624  -75.8198 H         1 UNK         0.0747 
    114 H114      -78.1454   22.4173  -73.8192 H         1 UNK         0.0793 
    115 H115      -76.7992   23.4491  -73.3542 H         1 UNK         0.0793 
    116 H116      -78.4446   24.0442  -73.2142 H         1 UNK         0.0793 
    117 H117      -79.7997   23.6675  -75.3276 H         1 UNK         0.3047 
    118 H118      -80.7543   24.9768  -78.4338 H         1 UNK         0.0822 
    119 H119      -81.9181   22.8588  -78.9986 H         1 UNK         0.0807 
    120 H120      -80.8818   21.9603  -77.8881 H         1 UNK         0.0807 
    121 H121      -80.2016   22.7042  -79.3287 H         1 UNK         0.0807 
    122 H122      -82.3293   23.5254  -76.5976 H         1 UNK         0.2946 
    123 H123      -83.4502   26.2405  -74.8751 H         1 UNK         0.1144 
    124 H124      -84.8573   24.2660  -74.4563 H         1 UNK         0.0793 
    125 H125      -83.6208   23.1784  -75.0670 H         1 UNK         0.0793 
    126 H126      -84.4291   24.3103  -76.1534 H         1 UNK         0.0793 
    127 H127      -82.8040   25.7578  -72.8013 H         1 UNK         0.2896 
@<TRIPOS>BOND
     1    1    2 1    
     2    1   67 1    
     3    1   68 1    
     4    1   69 1    
     5    2    3 2    
     6    2    4 am   BACKBONE|DICT|INTERRES
     7    4    5 1    
     8    4   70 1    
     9    5    6 1    
    10    5   65 1    
    11    5   71 1    
    12    6    7 1    
    13    6   72 1    
    14    6   73 1    
    15    7    8 1    
    16    8    9 1    
    17    8   74 1    
    18    8   75 1    
    19    9   10 ar   
    20    9   14 ar   
    21   10   11 ar   
    22   10   76 1    
    23   11   12 ar   
    24   11   48 1    
    25   12   13 ar   
    26   12   77 1    
    27   13   14 ar   
    28   13   15 1    
    29   14   78 1    
    30   15   16 1    
    31   15   79 1    
    32   15   80 1    
    33   16   17 1    
    34   17   18 1    
    35   17   81 1    
    36   17   82 1    
    37   18   19 1    
    38   18   22 1    
    39   18   83 1    
    40   19   20 am   BACKBONE|DICT|INTERRES
    41   19   21 2    
    42   20   84 1    
    43   20   85 1    
    44   22   23 am   BACKBONE|DICT|INTERRES
    45   22   86 1    
    46   23   24 2    
    47   23   25 1    
    48   25   26 1    
    49   25   27 1    
    50   25   87 1    
    51   26   88 1    
    52   26   89 1    
    53   26   90 1    
    54   27   28 am   BACKBONE|DICT|INTERRES
    55   27   91 1    
    56   28   29 2    
    57   28   30 1    
    58   30   31 1    
    59   30   32 1    
    60   30   92 1    
    61   31   93 1    
    62   31   94 1    
    63   31   95 1    
    64   32   33 am   BACKBONE|DICT|INTERRES
    65   32   96 1    
    66   33   34 2    
    67   33   35 1    
    68   35   36 1    
    69   35   37 1    
    70   35   97 1    
    71   36   98 1    
    72   36   99 1    
    73   36  100 1    
    74   37   38 am   BACKBONE|DICT|INTERRES
    75   37  101 1    
    76   38   39 2    
    77   38   40 1    
    78   40   41 1    
    79   40   42 1    
    80   40  102 1    
    81   41  103 1    
    82   41  104 1    
    83   41  105 1    
    84   42   43 am   BACKBONE|DICT|INTERRES
    85   42  106 1    
    86   43   44 2    
    87   43   45 1    
    88   45   46 1    
    89   45   49 1    
    90   45  107 1    
    91   46   47 1    
    92   46  108 1    
    93   46  109 1    
    94   47   48 1    
    95   48  110 1    
    96   48  111 1    
    97   49   50 am   BACKBONE|DICT|INTERRES
    98   49  112 1    
    99   50   51 2    
   100   50   52 1    
   101   52   53 1    
   102   52   54 1    
   103   52  113 1    
   104   53  114 1    
   105   53  115 1    
   106   53  116 1    
   107   54   55 am   BACKBONE|DICT|INTERRES
   108   54  117 1    
   109   55   56 2    
   110   55   57 1    
   111   57   58 1    
   112   57   59 1    
   113   57  118 1    
   114   58  119 1    
   115   58  120 1    
   116   58  121 1    
   117   59   60 am   BACKBONE|DICT|INTERRES
   118   59  122 1    
   119   60   61 2    
   120   60   62 1    
   121   62   63 1    
   122   62   64 1    
   123   62  123 1    
   124   63  124 1    
   125   63  125 1    
   126   63  126 1    
   127   64   65 am   BACKBONE|DICT|INTERRES
   128   64  127 1    
   129   65   66 2    
@<TRIPOS>SUBSTRUCTURE
     1 UNK         1 GROUP             0       ****    0 ROOT    
