@<TRIPOS>MOLECULE
3R135
127   129    1
SMALL
USER_CHARGES


@<TRIPOS>ATOM
      1 CA        -84.5043   26.5260  -72.7103 C.3       0 UNK        -0.1998 
      2 C         -83.5151   27.0112  -73.7592 C.2       0 UNK         0.4909 
      3 O         -83.6045   26.6046  -74.9183 O.2       0 UNK        -0.5240 
      4 N         -82.5732   27.8786  -73.3634 N.am      1 UNK        -0.4739 
      5 CA        -81.4943   28.3956  -74.2125 C.3       1 UNK         0.0864 
      6 C6        -80.6958   29.5135  -73.4902 C.3       11 UNK        -0.0881 
      7 S7        -79.8805   30.6980  -74.6205 S.3       11 UNK        -0.2682 
      8 C8        -78.2459   29.9634  -74.9861 C.3       11 UNK         0.0289 
      9 C9        -77.4972   29.4791  -73.7502 C.ar      11 UNK        -0.0687 
     10 C10       -77.3444   28.1104  -73.5232 C.ar      11 UNK        -0.0823 
     11 C11       -76.7222   27.6335  -72.3696 C.ar      11 UNK        -0.0830 
     12 C12       -76.1950   28.5496  -71.4538 C.ar      11 UNK        -0.1021 
     13 C13       -76.2996   29.9269  -71.6878 C.ar      11 UNK        -0.0753 
     14 C14       -76.9569   30.3854  -72.8350 C.ar      11 UNK        -0.0933 
     15 C15       -75.7453   30.9300  -70.6877 C.3       11 UNK         0.0166 
     16 S16       -74.0496   31.4396  -71.1087 S.3       11 UNK        -0.2615 
     17 C17       -73.0705   30.1274  -70.3022 C.3       11 UNK        -0.0865 
     18 CA        -71.7889   29.7556  -71.0884 C.3       10 UNK         0.0862 
     19 C         -70.9424   28.7396  -70.2708 C.2       10 UNK         0.5551 
     20 N         -69.9947   29.2191  -69.4770 N.am      10 UNK        -0.7319 
     21 O         -71.1711   27.5323  -70.3140 O.2       10 UNK        -0.5018 
     22 N         -72.1040   29.2840  -72.4458 N.am      10 UNK        -0.4509 
     23 C         -71.1982   28.9717  -73.3822 C.2       10 UNK         0.4899 
     24 O         -69.9819   29.1007  -73.2371 O.2       10 UNK        -0.4839 
     25 CA        -71.7329   28.4270  -74.7168 C.3       9 UNK         0.0222 
     26 CB        -71.8315   26.8941  -74.6651 C.3       9 UNK        -0.1966 
     27 N         -73.0274   28.9889  -75.1114 N.am      9 UNK        -0.4218 
     28 C         -73.2309   30.2561  -75.4959 C.2       9 UNK         0.5020 
     29 O         -72.3519   31.1198  -75.5119 O.2       9 UNK        -0.5274 
     30 CA        -74.6448   30.5822  -76.0135 C.3       8 UNK         0.0270 
     31 CB        -74.8755   32.0904  -76.2215 C.3       8 UNK        -0.1976 
     32 N         -74.9091   29.8716  -77.2695 N.am      8 UNK        -0.4313 
     33 C         -75.2244   28.5730  -77.3466 C.2       8 UNK         0.5041 
     34 O         -75.4766   27.8831  -76.3543 O.2       8 UNK        -0.5577 
     35 CA        -75.1924   27.9161  -78.7353 C.3       7 UNK         0.0284 
     36 CB        -73.8100   28.1065  -79.4007 C.3       7 UNK        -0.1958 
     37 N         -75.4743   26.4984  -78.5282 N.am      7 UNK        -0.4454 
     38 C         -75.5964   25.5246  -79.4349 C.2       7 UNK         0.5089 
     39 O         -75.5481   25.7168  -80.6505 O.2       7 UNK        -0.5125 
     40 CA        -75.8467   24.0938  -78.9098 C.3       6 UNK         0.0408 
     41 CB        -74.9077   23.0638  -79.5712 C.3       6 UNK        -0.1791 
     42 N         -75.8424   23.9607  -77.4435 N.am      6 UNK        -0.4762 
     43 C         -74.8084   24.0716  -76.5926 C.2       6 UNK         0.5007 
     44 O         -73.6525   24.2912  -76.9533 O.2       6 UNK        -0.5032 
     45 CA        -75.1026   23.9360  -75.0844 C.3       5 UNK         0.0783 
     46 C46       -75.3378   25.3321  -74.4580 C.3       11 UNK        -0.0857 
     47 S47       -75.1454   25.3446  -72.6451 S.3       11 UNK        -0.2512 
     48 C48       -76.6886   26.1339  -72.0903 C.3       11 UNK         0.0225 
     49 N         -76.2238   23.0150  -74.8423 N.am      5 UNK        -0.4615 
     50 C         -76.1319   21.8781  -74.1390 C.2       4 UNK         0.5053 
     51 O         -75.0965   21.5149  -73.5785 O.2       4 UNK        -0.5105 
     52 CA        -77.3640   20.9479  -74.0748 C.3       4 UNK         0.0263 
     53 CB        -77.5928   20.3780  -72.6577 C.3       4 UNK        -0.1981 
     54 N         -78.6024   21.5035  -74.6394 N.am      4 UNK        -0.4224 
     55 C         -79.3727   22.4820  -74.1421 C.2       3 UNK         0.4895 
     56 O         -79.1573   23.0734  -73.0832 O.2       3 UNK        -0.5091 
     57 CA        -80.5775   22.8923  -75.0149 C.3       3 UNK         0.0250 
     58 CB        -81.8916   22.8007  -74.2207 C.3       3 UNK        -0.1996 
     59 N         -80.4389   24.2493  -75.5506 N.am      3 UNK        -0.4254 
     60 C         -79.3757   24.7227  -76.2142 C.2       2 UNK         0.5004 
     61 O         -78.4191   24.0191  -76.5397 O.2       2 UNK        -0.5226 
     62 CA        -79.3342   26.2202  -76.5799 C.3       2 UNK         0.0269 
     63 CB        -79.4103   26.4002  -78.1050 C.3       2 UNK        -0.1926 
     64 N         -80.3335   27.0966  -75.9497 N.am      2 UNK        -0.4687 
     65 C         -80.5566   27.2500  -74.6358 C.2       1 UNK         0.5165 
     66 O         -80.0455   26.5506  -73.7611 O.2       1 UNK        -0.5079 
     67 H67       -84.4409   25.4428  -72.6091 H         1 UNK         0.0900 
     68 H68       -85.5211   26.7821  -73.0065 H         1 UNK         0.0900 
     69 H69       -84.3136   26.9697  -71.7332 H         1 UNK         0.0900 
     70 H70       -82.5340   28.1523  -72.3920 H         1 UNK         0.2959 
     71 H71       -81.9665   28.8195  -75.1017 H         1 UNK         0.1079 
     72 H72       -81.3834   30.1159  -72.8944 H         1 UNK         0.0837 
     73 H73       -79.9841   29.1102  -72.7673 H         1 UNK         0.0837 
     74 H74       -78.3699   29.1508  -75.7024 H         1 UNK         0.0685 
     75 H75       -77.6456   30.7157  -75.4977 H         1 UNK         0.0685 
     76 H76       -77.7409   27.4064  -74.2349 H         1 UNK         0.1434 
     77 H77       -75.7208   28.1872  -70.5526 H         1 UNK         0.1329 
     78 H78       -77.0606   31.4475  -73.0103 H         1 UNK         0.1335 
     79 H79       -75.7744   30.5234  -69.6755 H         1 UNK         0.0680 
     80 H80       -76.3798   31.8176  -70.6718 H         1 UNK         0.0680 
     81 H81       -73.6865   29.2396  -70.1557 H         1 UNK         0.1032 
     82 H82       -72.8139   30.4816  -69.3017 H         1 UNK         0.1032 
     83 H83       -71.1947   30.6640  -71.2078 H         1 UNK         0.0461 
     84 H84       -69.4463   28.5776  -68.9254 H         1 UNK         0.3453 
     85 H85       -69.8068   30.2086  -69.4273 H         1 UNK         0.3453 
     86 H86       -73.0824   29.1531  -72.6546 H         1 UNK         0.2984 
     87 H87       -71.0117   28.6906  -75.4933 H         1 UNK         0.0554 
     88 H88       -72.1913   26.4817  -75.6083 H         1 UNK         0.0847 
     89 H89       -72.4987   26.5601  -73.8699 H         1 UNK         0.0847 
     90 H90       -70.8544   26.4499  -74.4709 H         1 UNK         0.0847 
     91 H91       -73.8135   28.3512  -75.1902 H         1 UNK         0.3141 
     92 H92       -75.3428   30.2410  -75.2503 H         1 UNK         0.0743 
     93 H93       -74.7021   32.6402  -75.2953 H         1 UNK         0.0784 
     94 H94       -74.2064   32.5036  -76.9773 H         1 UNK         0.0784 
     95 H95       -75.8999   32.2962  -76.5318 H         1 UNK         0.0784 
     96 H96       -74.6899   30.3703  -78.1200 H         1 UNK         0.3213 
     97 H97       -75.9791   28.3520  -79.3536 H         1 UNK         0.0855 
     98 H98       -73.5818   29.1602  -79.5620 H         1 UNK         0.0814 
     99 H99       -73.7602   27.6287  -80.3786 H         1 UNK         0.0814 
    100 H100      -73.0106   27.6885  -78.7869 H         1 UNK         0.0814 
    101 H101      -75.5579   26.2668  -77.5449 H         1 UNK         0.3105 
    102 H102      -76.8641   23.8451  -79.2150 H         1 UNK         0.0547 
    103 H103      -75.0430   23.0512  -80.6533 H         1 UNK         0.0837 
    104 H104      -73.8579   23.2889  -79.3824 H         1 UNK         0.0837 
    105 H105      -75.1067   22.0550  -79.2102 H         1 UNK         0.0837 
    106 H106      -76.7757   23.8460  -77.0477 H         1 UNK         0.3020 
    107 H107      -74.1850   23.5306  -74.6514 H         1 UNK         0.1245 
    108 H108      -76.3197   25.7095  -74.7423 H         1 UNK         0.0781 
    109 H109      -74.6139   26.0519  -74.8384 H         1 UNK         0.0781 
    110 H110      -76.7990   25.9638  -71.0185 H         1 UNK         0.0836 
    111 H111      -77.5403   25.6361  -72.5589 H         1 UNK         0.0836 
    112 H112      -77.1072   23.2454  -75.2843 H         1 UNK         0.3022 
    113 H113      -77.1139   20.1031  -74.7183 H         1 UNK         0.0747 
    114 H114      -78.4541   19.7106  -72.6310 H         1 UNK         0.0793 
    115 H115      -76.7293   19.8018  -72.3233 H         1 UNK         0.0793 
    116 H116      -77.7550   21.1674  -71.9233 H         1 UNK         0.0793 
    117 H117      -78.8623   21.1214  -75.5389 H         1 UNK         0.3047 
    118 H118      -80.6480   22.2121  -75.8661 H         1 UNK         0.0822 
    119 H119      -82.7542   23.0167  -74.8516 H         1 UNK         0.0807 
    120 H120      -81.9053   23.5011  -73.3841 H         1 UNK         0.0807 
    121 H121      -82.0317   21.7995  -73.8109 H         1 UNK         0.0807 
    122 H122      -81.1531   24.9127  -75.2864 H         1 UNK         0.2946 
    123 H123      -78.3524   26.5738  -76.2612 H         1 UNK         0.1144 
    124 H124      -79.2189   27.4339  -78.3935 H         1 UNK         0.0793 
    125 H125      -80.3882   26.1154  -78.4948 H         1 UNK         0.0793 
    126 H126      -78.6664   25.7859  -78.6141 H         1 UNK         0.0793 
    127 H127      -80.8413   27.6970  -76.5839 H         1 UNK         0.2896 
@<TRIPOS>BOND
     1    1    2 1    
     2    1   67 1    
     3    1   68 1    
     4    1   69 1    
     5    2    3 2    
     6    2    4 am   BACKBONE|DICT|INTERRES
     7    4    5 1    
     8    4   70 1    
     9    5    6 1    
    10    5   65 1    
    11    5   71 1    
    12    6    7 1    
    13    6   72 1    
    14    6   73 1    
    15    7    8 1    
    16    8    9 1    
    17    8   74 1    
    18    8   75 1    
    19    9   10 ar   
    20    9   14 ar   
    21   10   11 ar   
    22   10   76 1    
    23   11   12 ar   
    24   11   48 1    
    25   12   13 ar   
    26   12   77 1    
    27   13   14 ar   
    28   13   15 1    
    29   14   78 1    
    30   15   16 1    
    31   15   79 1    
    32   15   80 1    
    33   16   17 1    
    34   17   18 1    
    35   17   81 1    
    36   17   82 1    
    37   18   19 1    
    38   18   22 1    
    39   18   83 1    
    40   19   20 am   BACKBONE|DICT|INTERRES
    41   19   21 2    
    42   20   84 1    
    43   20   85 1    
    44   22   23 am   BACKBONE|DICT|INTERRES
    45   22   86 1    
    46   23   24 2    
    47   23   25 1    
    48   25   26 1    
    49   25   27 1    
    50   25   87 1    
    51   26   88 1    
    52   26   89 1    
    53   26   90 1    
    54   27   28 am   BACKBONE|DICT|INTERRES
    55   27   91 1    
    56   28   29 2    
    57   28   30 1    
    58   30   31 1    
    59   30   32 1    
    60   30   92 1    
    61   31   93 1    
    62   31   94 1    
    63   31   95 1    
    64   32   33 am   BACKBONE|DICT|INTERRES
    65   32   96 1    
    66   33   34 2    
    67   33   35 1    
    68   35   36 1    
    69   35   37 1    
    70   35   97 1    
    71   36   98 1    
    72   36   99 1    
    73   36  100 1    
    74   37   38 am   BACKBONE|DICT|INTERRES
    75   37  101 1    
    76   38   39 2    
    77   38   40 1    
    78   40   41 1    
    79   40   42 1    
    80   40  102 1    
    81   41  103 1    
    82   41  104 1    
    83   41  105 1    
    84   42   43 am   BACKBONE|DICT|INTERRES
    85   42  106 1    
    86   43   44 2    
    87   43   45 1    
    88   45   46 1    
    89   45   49 1    
    90   45  107 1    
    91   46   47 1    
    92   46  108 1    
    93   46  109 1    
    94   47   48 1    
    95   48  110 1    
    96   48  111 1    
    97   49   50 am   BACKBONE|DICT|INTERRES
    98   49  112 1    
    99   50   51 2    
   100   50   52 1    
   101   52   53 1    
   102   52   54 1    
   103   52  113 1    
   104   53  114 1    
   105   53  115 1    
   106   53  116 1    
   107   54   55 am   BACKBONE|DICT|INTERRES
   108   54  117 1    
   109   55   56 2    
   110   55   57 1    
   111   57   58 1    
   112   57   59 1    
   113   57  118 1    
   114   58  119 1    
   115   58  120 1    
   116   58  121 1    
   117   59   60 am   BACKBONE|DICT|INTERRES
   118   59  122 1    
   119   60   61 2    
   120   60   62 1    
   121   62   63 1    
   122   62   64 1    
   123   62  123 1    
   124   63  124 1    
   125   63  125 1    
   126   63  126 1    
   127   64   65 am   BACKBONE|DICT|INTERRES
   128   64  127 1    
   129   65   66 2    
@<TRIPOS>SUBSTRUCTURE
     1 UNK         1 GROUP             0       ****    0 ROOT    
