@<TRIPOS>MOLECULE
3R135
127   129    1
SMALL
USER_CHARGES


@<TRIPOS>ATOM
      1 CA        -76.7568   29.1366  -76.7999 C.3       0 UNK        -0.1998 
      2 C         -77.5627   28.4035  -75.7404 C.2       0 UNK         0.4909 
      3 O         -77.2736   27.2475  -75.4274 O.2       0 UNK        -0.5240 
      4 N         -78.5891   29.0717  -75.2005 N.am      1 UNK        -0.4739 
      5 CA        -79.5725   28.4755  -74.2945 C.3       1 UNK         0.0864 
      6 C6        -80.4125   29.5669  -73.5862 C.3       11 UNK        -0.0881 
      7 S7        -81.3549   28.9130  -72.1655 S.3       11 UNK        -0.2682 
      8 C8        -80.3403   29.4546  -70.7553 C.3       11 UNK         0.0289 
      9 C9        -78.9439   28.8464  -70.7700 C.ar      11 UNK        -0.0687 
     10 C10       -78.7689   27.4695  -70.5921 C.ar      11 UNK        -0.0823 
     11 C11       -77.4853   26.9154  -70.5551 C.ar      11 UNK        -0.0830 
     12 C12       -76.3733   27.7537  -70.6964 C.ar      11 UNK        -0.1021 
     13 C13       -76.5342   29.1306  -70.8790 C.ar      11 UNK        -0.0753 
     14 C14       -77.8232   29.6693  -70.9190 C.ar      11 UNK        -0.0933 
     15 C15       -75.3201   30.0467  -70.9625 C.3       11 UNK         0.0166 
     16 S16       -75.1002   30.7651  -72.6209 S.3       11 UNK        -0.2615 
     17 C17       -73.7026   31.9072  -72.3170 C.3       11 UNK        -0.0865 
     18 CA        -72.3698   31.5416  -73.0329 C.3       10 UNK         0.0862 
     19 C         -71.7109   30.2167  -72.5561 C.2       10 UNK         0.5551 
     20 N         -71.6016   30.0058  -71.2505 N.am      10 UNK        -0.7319 
     21 O         -71.2541   29.3925  -73.3455 O.2       10 UNK        -0.5018 
     22 N         -72.5049   31.6093  -74.4960 N.am      10 UNK        -0.4509 
     23 C         -72.0078   32.5838  -75.2695 C.2       10 UNK         0.4899 
     24 O         -71.3833   33.5492  -74.8249 O.2       10 UNK        -0.4839 
     25 CA        -72.2734   32.5077  -76.7888 C.3       9 UNK         0.0222 
     26 CB        -71.1837   33.2167  -77.6231 C.3       9 UNK        -0.1966 
     27 N         -72.5261   31.1539  -77.2930 N.am      9 UNK        -0.4218 
     28 C         -71.6795   30.1147  -77.3257 C.2       9 UNK         0.5020 
     29 O         -70.5042   30.1520  -76.9556 O.2       9 UNK        -0.5274 
     30 CA        -72.2739   28.7967  -77.8592 C.3       8 UNK         0.0270 
     31 CB        -71.3165   28.1079  -78.8475 C.3       8 UNK        -0.1976 
     32 N         -72.6297   27.8481  -76.7996 N.am      8 UNK        -0.4313 
     33 C         -73.3770   28.0987  -75.7161 C.2       8 UNK         0.5041 
     34 O         -73.8631   29.1994  -75.4539 O.2       8 UNK        -0.5577 
     35 CA        -73.6851   26.8888  -74.8220 C.3       7 UNK         0.0284 
     36 CB        -74.1991   27.2896  -73.4301 C.3       7 UNK        -0.1958 
     37 N         -74.6979   26.0490  -75.4534 N.am      7 UNK        -0.4454 
     38 C         -74.4745   25.1246  -76.3928 C.2       7 UNK         0.5089 
     39 O         -73.3606   24.8956  -76.8703 O.2       7 UNK        -0.5125 
     40 CA        -75.7095   24.3153  -76.8439 C.3       6 UNK         0.0408 
     41 CB        -75.3494   23.1293  -77.7616 C.3       6 UNK        -0.1791 
     42 N         -76.5300   23.8597  -75.7124 N.am      6 UNK        -0.4762 
     43 C         -76.1230   23.1313  -74.6581 C.2       6 UNK         0.5007 
     44 O         -74.9879   22.6704  -74.5276 O.2       6 UNK        -0.5032 
     45 CA        -77.1799   22.8498  -73.5761 C.3       5 UNK         0.0783 
     46 C46       -77.5909   24.1353  -72.8072 C.3       11 UNK        -0.0857 
     47 S47       -76.3263   24.5848  -71.5724 S.3       11 UNK        -0.2512 
     48 C48       -77.2951   25.4279  -70.2799 C.3       11 UNK         0.0225 
     49 N         -78.3227   22.1696  -74.1853 N.am      5 UNK        -0.4615 
     50 C         -78.4178   20.8405  -74.3399 C.2       4 UNK         0.5053 
     51 O         -77.5904   20.0427  -73.8984 O.2       4 UNK        -0.5105 
     52 CA        -79.6400   20.2903  -75.1007 C.3       4 UNK         0.0263 
     53 CB        -80.7060   19.7938  -74.1103 C.3       4 UNK        -0.1981 
     54 N         -80.2478   21.2682  -76.0033 N.am      4 UNK        -0.4224 
     55 C         -79.7148   21.6807  -77.1624 C.2       3 UNK         0.4895 
     56 O         -78.7039   21.1913  -77.6659 O.2       3 UNK        -0.5091 
     57 CA        -80.4121   22.8646  -77.8615 C.3       3 UNK         0.0250 
     58 CB        -81.3699   22.3581  -78.9518 C.3       3 UNK        -0.1996 
     59 N         -81.1429   23.7509  -76.9434 N.am      3 UNK        -0.4254 
     60 C         -80.5742   24.4441  -75.9474 C.2       2 UNK         0.5004 
     61 O         -79.3683   24.4027  -75.6916 O.2       2 UNK        -0.5226 
     62 CA        -81.5153   25.2371  -75.0281 C.3       2 UNK         0.0269 
     63 CB        -82.0583   24.3264  -73.9141 C.3       2 UNK        -0.1926 
     64 N         -80.8108   26.3605  -74.4118 N.am      2 UNK        -0.4687 
     65 C         -80.4594   27.4738  -75.0653 C.2       1 UNK         0.5165 
     66 O         -80.8208   27.7321  -76.2178 O.2       1 UNK        -0.5079 
     67 H67       -77.4061   29.4987  -77.5964 H         1 UNK         0.0900 
     68 H68       -76.0126   28.4764  -77.2443 H         1 UNK         0.0900 
     69 H69       -76.2386   29.9879  -76.3590 H         1 UNK         0.0900 
     70 H70       -78.7911   30.0087  -75.5175 H         1 UNK         0.2959 
     71 H71       -79.0092   27.9245  -73.5373 H         1 UNK         0.1079 
     72 H72       -79.7619   30.3681  -73.2317 H         1 UNK         0.0837 
     73 H73       -81.1084   30.0377  -74.2834 H         1 UNK         0.0837 
     74 H74       -80.2931   30.5447  -70.7486 H         1 UNK         0.0685 
     75 H75       -80.8426   29.1663  -69.8309 H         1 UNK         0.0685 
     76 H76       -79.6359   26.8364  -70.4606 H         1 UNK         0.1434 
     77 H77       -75.3789   27.3320  -70.6431 H         1 UNK         0.1329 
     78 H78       -77.9483   30.7360  -71.0460 H         1 UNK         0.1335 
     79 H79       -75.4351   30.8498  -70.2332 H         1 UNK         0.0680 
     80 H80       -74.4135   29.5056  -70.6882 H         1 UNK         0.0680 
     81 H81       -73.5393   32.0144  -71.2441 H         1 UNK         0.1032 
     82 H82       -74.0182   32.8980  -72.6469 H         1 UNK         0.1032 
     83 H83       -71.6446   32.2962  -72.7242 H         1 UNK         0.0461 
     84 H84       -71.1571   29.1593  -70.9323 H         1 UNK         0.3453 
     85 H85       -71.9267   30.6814  -70.5783 H         1 UNK         0.3453 
     86 H86       -72.9732   30.8090  -74.9194 H         1 UNK         0.2984 
     87 H87       -73.2041   33.0541  -76.9466 H         1 UNK         0.0554 
     88 H88       -71.4011   33.1630  -78.6898 H         1 UNK         0.0847 
     89 H89       -70.1987   32.7791  -77.4584 H         1 UNK         0.0847 
     90 H90       -71.1152   34.2736  -77.3628 H         1 UNK         0.0847 
     91 H91       -73.4832   30.9744  -77.5645 H         1 UNK         0.3141 
     92 H92       -73.1933   29.0283  -78.4006 H         1 UNK         0.0743 
     93 H93       -70.3983   27.7798  -78.3582 H         1 UNK         0.0784 
     94 H94       -71.7805   27.2359  -79.3092 H         1 UNK         0.0784 
     95 H95       -71.0319   28.7869  -79.6526 H         1 UNK         0.0784 
     96 H96       -72.3395   26.8881  -76.9410 H         1 UNK         0.3213 
     97 H97       -72.7635   26.3181  -74.6891 H         1 UNK         0.0855 
     98 H98       -73.4977   27.9507  -72.9243 H         1 UNK         0.0814 
     99 H99       -74.3316   26.4152  -72.7948 H         1 UNK         0.0814 
    100 H100      -75.1557   27.8109  -73.4876 H         1 UNK         0.0814 
    101 H101      -75.6654   26.2630  -75.2180 H         1 UNK         0.3105 
    102 H102      -76.3347   25.0018  -77.4167 H         1 UNK         0.0547 
    103 H103      -74.8329   23.4723  -78.6587 H         1 UNK         0.0837 
    104 H104      -74.6942   22.4154  -77.2617 H         1 UNK         0.0837 
    105 H105      -76.2422   22.5945  -78.0859 H         1 UNK         0.0837 
    106 H106      -77.4962   24.1841  -75.7164 H         1 UNK         0.3020 
    107 H107      -76.7271   22.1650  -72.8544 H         1 UNK         0.1245 
    108 H108      -78.5324   23.9620  -72.2843 H         1 UNK         0.0781 
    109 H109      -77.7678   24.9822  -73.4739 H         1 UNK         0.0781 
    110 H110      -76.7642   25.3230  -69.3328 H         1 UNK         0.0836 
    111 H111      -78.2519   24.9218  -70.1438 H         1 UNK         0.0836 
    112 H112      -78.9891   22.7730  -74.6536 H         1 UNK         0.3022 
    113 H113      -79.3011   19.4391  -75.6953 H         1 UNK         0.0747 
    114 H114      -81.5490   19.3373  -74.6296 H         1 UNK         0.0793 
    115 H115      -80.2937   19.0380  -73.4401 H         1 UNK         0.0793 
    116 H116      -81.0908   20.6041  -73.4896 H         1 UNK         0.0793 
    117 H117      -81.0967   21.7124  -75.6865 H         1 UNK         0.3047 
    118 H118      -79.6307   23.4593  -78.3399 H         1 UNK         0.0822 
    119 H119      -81.7990   23.1841  -79.5193 H         1 UNK         0.0807 
    120 H120      -82.1906   21.7755  -78.5312 H         1 UNK         0.0807 
    121 H121      -80.8469   21.7172  -79.6633 H         1 UNK         0.0807 
    122 H122      -82.1410   23.8220  -77.0837 H         1 UNK         0.2946 
    123 H123      -82.3497   25.6234  -75.6182 H         1 UNK         0.1144 
    124 H124      -82.6318   23.4960  -74.3280 H         1 UNK         0.0793 
    125 H125      -82.7241   24.8732  -73.2459 H         1 UNK         0.0793 
    126 H126      -81.2553   23.9004  -73.3105 H         1 UNK         0.0793 
    127 H127      -80.4760   26.2229  -73.4700 H         1 UNK         0.2896 
@<TRIPOS>BOND
     1    1    2 1    
     2    1   67 1    
     3    1   68 1    
     4    1   69 1    
     5    2    3 2    
     6    2    4 am   BACKBONE|DICT|INTERRES
     7    4    5 1    
     8    4   70 1    
     9    5    6 1    
    10    5   65 1    
    11    5   71 1    
    12    6    7 1    
    13    6   72 1    
    14    6   73 1    
    15    7    8 1    
    16    8    9 1    
    17    8   74 1    
    18    8   75 1    
    19    9   10 ar   
    20    9   14 ar   
    21   10   11 ar   
    22   10   76 1    
    23   11   12 ar   
    24   11   48 1    
    25   12   13 ar   
    26   12   77 1    
    27   13   14 ar   
    28   13   15 1    
    29   14   78 1    
    30   15   16 1    
    31   15   79 1    
    32   15   80 1    
    33   16   17 1    
    34   17   18 1    
    35   17   81 1    
    36   17   82 1    
    37   18   19 1    
    38   18   22 1    
    39   18   83 1    
    40   19   20 am   BACKBONE|DICT|INTERRES
    41   19   21 2    
    42   20   84 1    
    43   20   85 1    
    44   22   23 am   BACKBONE|DICT|INTERRES
    45   22   86 1    
    46   23   24 2    
    47   23   25 1    
    48   25   26 1    
    49   25   27 1    
    50   25   87 1    
    51   26   88 1    
    52   26   89 1    
    53   26   90 1    
    54   27   28 am   BACKBONE|DICT|INTERRES
    55   27   91 1    
    56   28   29 2    
    57   28   30 1    
    58   30   31 1    
    59   30   32 1    
    60   30   92 1    
    61   31   93 1    
    62   31   94 1    
    63   31   95 1    
    64   32   33 am   BACKBONE|DICT|INTERRES
    65   32   96 1    
    66   33   34 2    
    67   33   35 1    
    68   35   36 1    
    69   35   37 1    
    70   35   97 1    
    71   36   98 1    
    72   36   99 1    
    73   36  100 1    
    74   37   38 am   BACKBONE|DICT|INTERRES
    75   37  101 1    
    76   38   39 2    
    77   38   40 1    
    78   40   41 1    
    79   40   42 1    
    80   40  102 1    
    81   41  103 1    
    82   41  104 1    
    83   41  105 1    
    84   42   43 am   BACKBONE|DICT|INTERRES
    85   42  106 1    
    86   43   44 2    
    87   43   45 1    
    88   45   46 1    
    89   45   49 1    
    90   45  107 1    
    91   46   47 1    
    92   46  108 1    
    93   46  109 1    
    94   47   48 1    
    95   48  110 1    
    96   48  111 1    
    97   49   50 am   BACKBONE|DICT|INTERRES
    98   49  112 1    
    99   50   51 2    
   100   50   52 1    
   101   52   53 1    
   102   52   54 1    
   103   52  113 1    
   104   53  114 1    
   105   53  115 1    
   106   53  116 1    
   107   54   55 am   BACKBONE|DICT|INTERRES
   108   54  117 1    
   109   55   56 2    
   110   55   57 1    
   111   57   58 1    
   112   57   59 1    
   113   57  118 1    
   114   58  119 1    
   115   58  120 1    
   116   58  121 1    
   117   59   60 am   BACKBONE|DICT|INTERRES
   118   59  122 1    
   119   60   61 2    
   120   60   62 1    
   121   62   63 1    
   122   62   64 1    
   123   62  123 1    
   124   63  124 1    
   125   63  125 1    
   126   63  126 1    
   127   64   65 am   BACKBONE|DICT|INTERRES
   128   64  127 1    
   129   65   66 2    
@<TRIPOS>SUBSTRUCTURE
     1 UNK         1 GROUP             0       ****    0 ROOT    
