@<TRIPOS>MOLECULE
3R135
127   129    1
SMALL
USER_CHARGES


@<TRIPOS>ATOM
      1 CA        -82.9975   22.9042  -72.8616 C.3       0 UNK        -0.1998 
      2 C         -82.6393   24.0912  -73.7423 C.2       0 UNK         0.4909 
      3 O         -82.8970   24.0599  -74.9461 O.2       0 UNK        -0.5240 
      4 N         -82.0384   25.1342  -73.1535 N.am      1 UNK        -0.4739 
      5 CA        -81.5826   26.3557  -73.8273 C.3       1 UNK         0.0864 
      6 C6        -81.0549   27.3862  -72.7945 C.3       11 UNK        -0.0881 
      7 S7        -81.1912   29.1086  -73.3781 S.3       11 UNK        -0.2682 
      8 C8        -80.3416   30.0232  -72.0481 C.3       11 UNK         0.0289 
      9 C9        -78.8296   29.8274  -72.0679 C.ar      11 UNK        -0.0687 
     10 C10       -78.2409   28.8339  -71.2819 C.ar      11 UNK        -0.0823 
     11 C11       -76.8566   28.6473  -71.2889 C.ar      11 UNK        -0.0830 
     12 C12       -76.0554   29.4805  -72.0719 C.ar      11 UNK        -0.1021 
     13 C13       -76.6219   30.4957  -72.8523 C.ar      11 UNK        -0.0753 
     14 C14       -78.0136   30.6578  -72.8443 C.ar      11 UNK        -0.0933 
     15 C15       -75.7679   31.4353  -73.7079 C.3       11 UNK         0.0166 
     16 S16       -74.2167   30.7085  -74.3536 S.3       11 UNK        -0.2615 
     17 C17       -73.0102   31.2107  -73.0741 C.3       11 UNK        -0.0865 
     18 CA        -71.8135   30.2354  -72.8874 C.3       10 UNK         0.0862 
     19 C         -72.1610   28.9944  -72.0106 C.2       10 UNK         0.5551 
     20 N         -71.9101   27.7649  -72.4432 N.am      10 UNK        -0.7319 
     21 O         -72.6452   29.1547  -70.8931 O.2       10 UNK        -0.5018 
     22 N         -71.1512   29.9293  -74.1648 N.am      10 UNK        -0.4509 
     23 C         -69.8594   29.6062  -74.3043 C.2       10 UNK         0.4899 
     24 O         -69.0457   29.6321  -73.3792 O.2       10 UNK        -0.4839 
     25 CA        -69.4103   29.1735  -75.7173 C.3       9 UNK         0.0222 
     26 CB        -68.0358   28.4713  -75.7147 C.3       9 UNK        -0.1966 
     27 N         -70.4024   28.3477  -76.4221 N.am      9 UNK        -0.4218 
     28 C         -70.9526   27.1987  -76.0007 C.2       9 UNK         0.5020 
     29 O         -70.7014   26.6743  -74.9143 O.2       9 UNK        -0.5274 
     30 CA        -71.9898   26.5637  -76.9429 C.3       8 UNK         0.0270 
     31 CB        -72.5443   25.2285  -76.4107 C.3       8 UNK        -0.1976 
     32 N         -73.0970   27.4948  -77.1773 N.am      8 UNK        -0.4313 
     33 C         -73.1103   28.4314  -78.1375 C.2       8 UNK         0.5041 
     34 O         -72.1672   28.5954  -78.9137 O.2       8 UNK        -0.5577 
     35 CA        -74.3112   29.3935  -78.2302 C.3       7 UNK         0.0284 
     36 CB        -74.9509   29.3843  -79.6344 C.3       7 UNK        -0.1958 
     37 N         -75.3098   29.2220  -77.1695 N.am      7 UNK        -0.4454 
     38 C         -76.1998   28.2352  -77.0059 C.2       7 UNK         0.5089 
     39 O         -76.3882   27.3088  -77.7955 O.2       7 UNK        -0.5125 
     40 CA        -76.9874   28.2891  -75.6900 C.3       6 UNK         0.0408 
     41 CB        -78.4270   28.7640  -75.9142 C.3       6 UNK        -0.1791 
     42 N         -76.9337   27.0195  -74.9526 N.am      6 UNK        -0.4762 
     43 C         -75.7853   26.5441  -74.4408 C.2       6 UNK         0.5007 
     44 O         -74.7045   27.1133  -74.6081 O.2       6 UNK        -0.5032 
     45 CA        -75.7815   25.2361  -73.6272 C.3       5 UNK         0.0783 
     46 C46       -75.3327   25.4696  -72.1524 C.3       11 UNK        -0.0857 
     47 S47       -76.6787   25.8954  -70.9866 S.3       11 UNK        -0.2512 
     48 C48       -76.2312   27.5669  -70.4203 C.3       11 UNK         0.0225 
     49 N         -77.0045   24.4315  -73.7375 N.am      5 UNK        -0.4615 
     50 C         -77.0421   23.1234  -73.4513 C.2       4 UNK         0.5053 
     51 O         -76.0373   22.4313  -73.2826 O.2       4 UNK        -0.5105 
     52 CA        -78.4236   22.4782  -73.2846 C.3       4 UNK         0.0263 
     53 CB        -79.1807   23.0970  -72.0954 C.3       4 UNK        -0.1981 
     54 N         -79.2229   22.6079  -74.5006 N.am      4 UNK        -0.4224 
     55 C         -79.4867   21.6063  -75.3536 C.2       3 UNK         0.4895 
     56 O         -79.0646   20.4582  -75.2095 O.2       3 UNK        -0.5091 
     57 CA        -80.3879   21.9101  -76.5668 C.3       3 UNK         0.0250 
     58 CB        -81.7368   21.1811  -76.4437 C.3       3 UNK        -0.1996 
     59 N         -80.6284   23.3432  -76.7504 N.am      3 UNK        -0.4254 
     60 C         -79.7710   24.1659  -77.3704 C.2       2 UNK         0.5004 
     61 O         -78.7498   23.7801  -77.9391 O.2       2 UNK        -0.5226 
     62 CA        -80.0723   25.6734  -77.3240 C.3       2 UNK         0.0269 
     63 CB        -80.7356   26.1379  -78.6299 C.3       2 UNK        -0.1926 
     64 N         -80.9020   26.0889  -76.1841 N.am      2 UNK        -0.4687 
     65 C         -80.5263   26.0130  -74.9000 C.2       1 UNK         0.5165 
     66 O         -79.4115   25.6213  -74.5470 O.2       1 UNK        -0.5079 
     67 H67       -82.3864   22.0421  -73.1265 H         1 UNK         0.0900 
     68 H68       -84.0444   22.6364  -73.0010 H         1 UNK         0.0900 
     69 H69       -82.8418   23.1196  -71.8048 H         1 UNK         0.0900 
     70 H70       -81.8457   25.0889  -72.1634 H         1 UNK         0.2959 
     71 H71       -82.4578   26.7812  -74.3235 H         1 UNK         0.1079 
     72 H72       -81.6378   27.3276  -71.8737 H         1 UNK         0.0837 
     73 H73       -80.0260   27.1640  -72.5084 H         1 UNK         0.0837 
     74 H74       -80.5712   31.0844  -72.1555 H         1 UNK         0.0685 
     75 H75       -80.7522   29.7236  -71.0826 H         1 UNK         0.0685 
     76 H76       -78.8602   28.1970  -70.6652 H         1 UNK         0.1434 
     77 H77       -74.9876   29.3320  -72.0689 H         1 UNK         0.1329 
     78 H78       -78.4671   31.4348  -73.4445 H         1 UNK         0.1335 
     79 H79       -75.5447   32.3367  -73.1359 H         1 UNK         0.0680 
     80 H80       -76.3516   31.7619  -74.5700 H         1 UNK         0.0680 
     81 H81       -72.6262   32.1903  -73.3622 H         1 UNK         0.1032 
     82 H82       -73.5234   31.3746  -72.1245 H         1 UNK         0.1032 
     83 H83       -71.0867   30.7833  -72.2843 H         1 UNK         0.0461 
     84 H84       -72.1266   26.9851  -71.8458 H         1 UNK         0.3453 
     85 H85       -71.4928   27.5957  -73.3521 H         1 UNK         0.3453 
     86 H86       -71.7629   29.8636  -74.9647 H         1 UNK         0.2984 
     87 H87       -69.3105   30.0921  -76.2970 H         1 UNK         0.0554 
     88 H88       -67.7250   28.2019  -76.7241 H         1 UNK         0.0847 
     89 H89       -68.0493   27.5611  -75.1139 H         1 UNK         0.0847 
     90 H90       -67.2627   29.1214  -75.3031 H         1 UNK         0.0847 
     91 H91       -70.7080   28.6909  -77.3274 H         1 UNK         0.3141 
     92 H92       -71.4854   26.3501  -77.8879 H         1 UNK         0.0743 
     93 H93       -71.7512   24.4835  -76.3372 H         1 UNK         0.0784 
     94 H94       -72.9767   25.3345  -75.4165 H         1 UNK         0.0784 
     95 H95       -73.3112   24.8232  -77.0709 H         1 UNK         0.0784 
     96 H96       -73.8556   27.4629  -76.5033 H         1 UNK         0.3213 
     97 H97       -73.8970   30.3907  -78.0731 H         1 UNK         0.0855 
     98 H98       -75.7884   30.0791  -79.6954 H         1 UNK         0.0814 
     99 H99       -75.3122   28.3942  -79.9132 H         1 UNK         0.0814 
    100 H100      -74.2263   29.6843  -80.3924 H         1 UNK         0.0814 
    101 H101      -75.2260   29.8873  -76.4100 H         1 UNK         0.3105 
    102 H102      -76.5179   29.0268  -75.0442 H         1 UNK         0.0547 
    103 H103      -79.0196   28.6336  -75.0141 H         1 UNK         0.0837 
    104 H104      -78.4433   29.8265  -76.1584 H         1 UNK         0.0837 
    105 H105      -78.9219   28.2487  -76.7330 H         1 UNK         0.0837 
    106 H106      -77.8064   26.5191  -74.8213 H         1 UNK         0.3020 
    107 H107      -74.9900   24.6541  -74.1049 H         1 UNK         0.1245 
    108 H108      -74.5361   26.2134  -72.0928 H         1 UNK         0.0781 
    109 H109      -74.8811   24.5507  -71.7761 H         1 UNK         0.0781 
    110 H110      -76.5892   27.6923  -69.3976 H         1 UNK         0.0836 
    111 H111      -75.1462   27.6729  -70.3721 H         1 UNK         0.0836 
    112 H112      -77.8763   24.9323  -73.8857 H         1 UNK         0.3022 
    113 H113      -78.2631   21.4238  -73.0494 H         1 UNK         0.0747 
    114 H114      -78.5891   23.0281  -71.1814 H         1 UNK         0.0793 
    115 H115      -80.1191   22.5752  -71.9112 H         1 UNK         0.0793 
    116 H116      -79.4068   24.1516  -72.2528 H         1 UNK         0.0793 
    117 H117      -79.5463   23.5403  -74.7256 H         1 UNK         0.3047 
    118 H118      -79.8798   21.5181  -77.4507 H         1 UNK         0.0822 
    119 H119      -81.5923   20.1022  -76.3726 H         1 UNK         0.0807 
    120 H120      -82.3675   21.3650  -77.3136 H         1 UNK         0.0807 
    121 H121      -82.2895   21.4926  -75.5581 H         1 UNK         0.0807 
    122 H122      -81.4516   23.7305  -76.2965 H         1 UNK         0.2946 
    123 H123      -79.0982   26.1565  -77.2412 H         1 UNK         0.1144 
    124 H124      -80.8515   27.2217  -78.6519 H         1 UNK         0.0793 
    125 H125      -81.7208   25.6897  -78.7640 H         1 UNK         0.0793 
    126 H126      -80.1306   25.8617  -79.4948 H         1 UNK         0.0793 
    127 H127      -81.8476   26.3743  -76.3969 H         1 UNK         0.2896 
@<TRIPOS>BOND
     1    1    2 1    
     2    1   67 1    
     3    1   68 1    
     4    1   69 1    
     5    2    3 2    
     6    2    4 am   BACKBONE|DICT|INTERRES
     7    4    5 1    
     8    4   70 1    
     9    5    6 1    
    10    5   65 1    
    11    5   71 1    
    12    6    7 1    
    13    6   72 1    
    14    6   73 1    
    15    7    8 1    
    16    8    9 1    
    17    8   74 1    
    18    8   75 1    
    19    9   10 ar   
    20    9   14 ar   
    21   10   11 ar   
    22   10   76 1    
    23   11   12 ar   
    24   11   48 1    
    25   12   13 ar   
    26   12   77 1    
    27   13   14 ar   
    28   13   15 1    
    29   14   78 1    
    30   15   16 1    
    31   15   79 1    
    32   15   80 1    
    33   16   17 1    
    34   17   18 1    
    35   17   81 1    
    36   17   82 1    
    37   18   19 1    
    38   18   22 1    
    39   18   83 1    
    40   19   20 am   BACKBONE|DICT|INTERRES
    41   19   21 2    
    42   20   84 1    
    43   20   85 1    
    44   22   23 am   BACKBONE|DICT|INTERRES
    45   22   86 1    
    46   23   24 2    
    47   23   25 1    
    48   25   26 1    
    49   25   27 1    
    50   25   87 1    
    51   26   88 1    
    52   26   89 1    
    53   26   90 1    
    54   27   28 am   BACKBONE|DICT|INTERRES
    55   27   91 1    
    56   28   29 2    
    57   28   30 1    
    58   30   31 1    
    59   30   32 1    
    60   30   92 1    
    61   31   93 1    
    62   31   94 1    
    63   31   95 1    
    64   32   33 am   BACKBONE|DICT|INTERRES
    65   32   96 1    
    66   33   34 2    
    67   33   35 1    
    68   35   36 1    
    69   35   37 1    
    70   35   97 1    
    71   36   98 1    
    72   36   99 1    
    73   36  100 1    
    74   37   38 am   BACKBONE|DICT|INTERRES
    75   37  101 1    
    76   38   39 2    
    77   38   40 1    
    78   40   41 1    
    79   40   42 1    
    80   40  102 1    
    81   41  103 1    
    82   41  104 1    
    83   41  105 1    
    84   42   43 am   BACKBONE|DICT|INTERRES
    85   42  106 1    
    86   43   44 2    
    87   43   45 1    
    88   45   46 1    
    89   45   49 1    
    90   45  107 1    
    91   46   47 1    
    92   46  108 1    
    93   46  109 1    
    94   47   48 1    
    95   48  110 1    
    96   48  111 1    
    97   49   50 am   BACKBONE|DICT|INTERRES
    98   49  112 1    
    99   50   51 2    
   100   50   52 1    
   101   52   53 1    
   102   52   54 1    
   103   52  113 1    
   104   53  114 1    
   105   53  115 1    
   106   53  116 1    
   107   54   55 am   BACKBONE|DICT|INTERRES
   108   54  117 1    
   109   55   56 2    
   110   55   57 1    
   111   57   58 1    
   112   57   59 1    
   113   57  118 1    
   114   58  119 1    
   115   58  120 1    
   116   58  121 1    
   117   59   60 am   BACKBONE|DICT|INTERRES
   118   59  122 1    
   119   60   61 2    
   120   60   62 1    
   121   62   63 1    
   122   62   64 1    
   123   62  123 1    
   124   63  124 1    
   125   63  125 1    
   126   63  126 1    
   127   64   65 am   BACKBONE|DICT|INTERRES
   128   64  127 1    
   129   65   66 2    
@<TRIPOS>SUBSTRUCTURE
     1 UNK         1 GROUP             0       ****    0 ROOT    
