@<TRIPOS>MOLECULE
3R135
127   129    1
SMALL
USER_CHARGES


@<TRIPOS>ATOM
      1 CA        -83.9316   26.6932  -75.4486 C.3       0 UNK        -0.1998 
      2 C         -82.6980   27.5796  -75.5237 C.2       0 UNK         0.4909 
      3 O         -82.1608   27.7915  -76.6118 O.2       0 UNK        -0.5240 
      4 N         -82.2442   28.1003  -74.3761 N.am      1 UNK        -0.4739 
      5 CA        -81.0079   28.8774  -74.2374 C.3       1 UNK         0.0864 
      6 C6        -80.9102   29.5926  -72.8602 C.3       11 UNK        -0.0881 
      7 S7        -81.2869   28.5380  -71.4117 S.3       11 UNK        -0.2682 
      8 C8        -79.9924   29.0313  -70.2148 C.3       11 UNK         0.0289 
      9 C9        -78.5773   28.5431  -70.5322 C.ar      11 UNK        -0.0687 
     10 C10       -78.3435   27.4103  -71.3208 C.ar      11 UNK        -0.0823 
     11 C11       -77.0419   26.9976  -71.6078 C.ar      11 UNK        -0.0830 
     12 C12       -75.9626   27.6883  -71.0568 C.ar      11 UNK        -0.1021 
     13 C13       -76.1727   28.8011  -70.2383 C.ar      11 UNK        -0.0753 
     14 C14       -77.4824   29.2284  -69.9897 C.ar      11 UNK        -0.0933 
     15 C15       -74.9892   29.5050  -69.5830 C.3       11 UNK         0.0166 
     16 S16       -73.6476   29.8979  -70.7536 S.3       11 UNK        -0.2615 
     17 C17       -74.2587   31.4552  -71.4836 C.3       11 UNK        -0.0865 
     18 CA        -73.3323   32.0316  -72.5879 C.3       10 UNK         0.0862 
     19 C         -71.9311   32.4384  -72.0371 C.2       10 UNK         0.5551 
     20 N         -70.8375   31.8346  -72.4864 N.am      10 UNK        -0.7319 
     21 O         -71.8391   33.3278  -71.1941 O.2       10 UNK        -0.5018 
     22 N         -73.3386   31.1817  -73.7908 N.am      10 UNK        -0.4509 
     23 C         -72.9165   31.5511  -75.0053 C.2       10 UNK         0.4899 
     24 O         -72.4112   32.6502  -75.2393 O.2       10 UNK        -0.4839 
     25 CA        -73.1201   30.5438  -76.1587 C.3       9 UNK         0.0222 
     26 CB        -72.4697   31.0120  -77.4747 C.3       9 UNK        -0.1966 
     27 N         -72.6715   29.1742  -75.8797 N.am      9 UNK        -0.4218 
     28 C         -73.2675   28.2916  -75.0687 C.2       9 UNK         0.5020 
     29 O         -74.2270   28.5601  -74.3445 O.2       9 UNK        -0.5274 
     30 CA        -72.7613   26.8457  -75.1522 C.3       8 UNK         0.0270 
     31 CB        -72.7920   26.1431  -73.7838 C.3       8 UNK        -0.1976 
     32 N         -73.6085   26.1395  -76.1196 N.am      8 UNK        -0.4313 
     33 C         -73.3512   26.1092  -77.4352 C.2       8 UNK         0.5041 
     34 O         -72.2896   26.4970  -77.9286 O.2       8 UNK        -0.5577 
     35 CA        -74.4881   25.6189  -78.3489 C.3       7 UNK         0.0284 
     36 CB        -74.1304   25.6551  -79.8514 C.3       7 UNK        -0.1958 
     37 N         -75.0293   24.3141  -77.9518 N.am      7 UNK        -0.4454 
     38 C         -74.4531   23.1088  -78.0704 C.2       7 UNK         0.5089 
     39 O         -73.3065   22.9215  -78.4802 O.2       7 UNK        -0.5125 
     40 CA        -75.3467   21.9122  -77.6841 C.3       6 UNK         0.0408 
     41 CB        -74.6446   20.5440  -77.8266 C.3       6 UNK        -0.1791 
     42 N         -75.9502   22.0839  -76.3579 N.am      6 UNK        -0.4762 
     43 C         -75.3111   22.1136  -75.1759 C.2       6 UNK         0.5007 
     44 O         -74.1124   21.8624  -75.0470 O.2       6 UNK        -0.5032 
     45 CA        -76.1191   22.5463  -73.9315 C.3       5 UNK         0.0783 
     46 C46       -75.2964   23.5728  -73.1126 C.3       11 UNK        -0.0857 
     47 S47       -76.1886   24.3515  -71.7233 S.3       11 UNK        -0.2512 
     48 C48       -76.7927   25.8472  -72.5631 C.3       11 UNK         0.0225 
     49 N         -77.4284   23.0798  -74.3210 N.am      5 UNK        -0.4615 
     50 C         -78.5962   22.4418  -74.1767 C.2       4 UNK         0.5053 
     51 O         -78.7071   21.3184  -73.6855 O.2       4 UNK        -0.5105 
     52 CA        -79.8589   23.1681  -74.6783 C.3       4 UNK         0.0263 
     53 CB        -80.6362   23.7672  -73.4949 C.3       4 UNK        -0.1981 
     54 N         -79.5865   24.2207  -75.6643 N.am      4 UNK        -0.4224 
     55 C         -79.0901   24.0005  -76.8925 C.2       3 UNK         0.4895 
     56 O         -78.7941   22.8828  -77.3152 O.2       3 UNK        -0.5091 
     57 CA        -78.8260   25.2206  -77.7915 C.3       3 UNK         0.0250 
     58 CB        -80.0192   25.4572  -78.7301 C.3       3 UNK        -0.1996 
     59 N         -78.5388   26.4554  -77.0603 N.am      3 UNK        -0.4254 
     60 C         -77.5195   26.6478  -76.2114 C.2       2 UNK         0.5004 
     61 O         -76.6726   25.7908  -75.9430 O.2       2 UNK        -0.5226 
     62 CA        -77.4553   28.0263  -75.5301 C.3       2 UNK         0.0269 
     63 CB        -76.7002   29.0102  -76.4365 C.3       2 UNK        -0.1926 
     64 N         -78.7546   28.6172  -75.1746 N.am      2 UNK        -0.4687 
     65 C         -79.7690   28.0089  -74.5404 C.2       1 UNK         0.5165 
     66 O         -79.7634   26.8184  -74.2188 O.2       1 UNK        -0.5079 
     67 H67       -84.7268   27.1025  -76.0710 H         1 UNK         0.0900 
     68 H68       -83.6950   25.6928  -75.8101 H         1 UNK         0.0900 
     69 H69       -84.3084   26.6054  -74.4297 H         1 UNK         0.0900 
     70 H70       -82.6979   27.8676  -73.5038 H         1 UNK         0.2959 
     71 H71       -81.0443   29.6558  -75.0032 H         1 UNK         0.1079 
     72 H72       -81.6195   30.4214  -72.8418 H         1 UNK         0.0837 
     73 H73       -79.9281   30.0534  -72.7356 H         1 UNK         0.0837 
     74 H74       -80.2710   28.6423  -69.2348 H         1 UNK         0.0685 
     75 H75       -80.0009   30.1190  -70.1275 H         1 UNK         0.0685 
     76 H76       -79.1720   26.8538  -71.7339 H         1 UNK         0.1434 
     77 H77       -74.9549   27.3585  -71.2701 H         1 UNK         0.1329 
     78 H78       -77.6524   30.0881  -69.3558 H         1 UNK         0.1335 
     79 H79       -74.5888   28.8477  -68.8101 H         1 UNK         0.0680 
     80 H80       -75.3050   30.4176  -69.0751 H         1 UNK         0.0680 
     81 H81       -75.2562   31.2805  -71.8905 H         1 UNK         0.1032 
     82 H82       -74.3891   32.1874  -70.6845 H         1 UNK         0.1032 
     83 H83       -73.7880   32.9737  -72.8989 H         1 UNK         0.0461 
     84 H84       -69.9359   32.1073  -72.1285 H         1 UNK         0.3453 
     85 H85       -70.9113   31.1088  -73.1804 H         1 UNK         0.3453 
     86 H86       -73.7324   30.2489  -73.6891 H         1 UNK         0.2984 
     87 H87       -74.1956   30.5072  -76.3337 H         1 UNK         0.0554 
     88 H88       -71.3855   31.0883  -77.3835 H         1 UNK         0.0847 
     89 H89       -72.8420   31.9937  -77.7712 H         1 UNK         0.0847 
     90 H90       -72.6914   30.3279  -78.2942 H         1 UNK         0.0847 
     91 H91       -71.8987   28.8427  -76.4407 H         1 UNK         0.3141 
     92 H92       -71.7229   26.8472  -75.4910 H         1 UNK         0.0743 
     93 H93       -73.7610   26.2263  -73.2951 H         1 UNK         0.0784 
     94 H94       -72.5418   25.0857  -73.8722 H         1 UNK         0.0784 
     95 H95       -72.0627   26.5926  -73.1089 H         1 UNK         0.0784 
     96 H96       -74.5380   25.8752  -75.8113 H         1 UNK         0.3213 
     97 H97       -75.3003   26.3338  -78.2139 H         1 UNK         0.0855 
     98 H98       -73.2787   25.0161  -80.0856 H         1 UNK         0.0814 
     99 H99       -73.8667   26.6667  -80.1624 H         1 UNK         0.0814 
    100 H100      -74.9706   25.3364  -80.4682 H         1 UNK         0.0814 
    101 H101      -75.9339   24.3543  -77.5013 H         1 UNK         0.3105 
    102 H102      -76.1781   21.9176  -78.3908 H         1 UNK         0.0547 
    103 H103      -75.3086   19.7257  -77.5490 H         1 UNK         0.0837 
    104 H104      -73.7480   20.4739  -77.2108 H         1 UNK         0.0837 
    105 H105      -74.3364   20.3747  -78.8589 H         1 UNK         0.0837 
    106 H106      -76.9450   22.2820  -76.3630 H         1 UNK         0.3020 
    107 H107      -76.2481   21.6529  -73.3164 H         1 UNK         0.1245 
    108 H108      -74.9200   24.3499  -73.7758 H         1 UNK         0.0781 
    109 H109      -74.4102   23.0919  -72.6939 H         1 UNK         0.0781 
    110 H110      -77.6989   25.6011  -73.1159 H         1 UNK         0.0836 
    111 H111      -76.0680   26.1835  -73.3028 H         1 UNK         0.0836 
    112 H112      -77.4226   23.9964  -74.7501 H         1 UNK         0.3022 
    113 H113      -80.4937   22.4216  -75.1601 H         1 UNK         0.0747 
    114 H114      -81.5407   24.2770  -73.8275 H         1 UNK         0.0793 
    115 H115      -80.9407   22.9884  -72.7945 H         1 UNK         0.0793 
    116 H116      -80.0331   24.4852  -72.9380 H         1 UNK         0.0793 
    117 H117      -79.7500   25.1767  -75.3592 H         1 UNK         0.3047 
    118 H118      -77.9525   24.9914  -78.4046 H         1 UNK         0.0822 
    119 H119      -79.8132   26.2572  -79.4415 H         1 UNK         0.0807 
    120 H120      -80.9208   25.7241  -78.1766 H         1 UNK         0.0807 
    121 H121      -80.2452   24.5610  -79.3099 H         1 UNK         0.0807 
    122 H122      -79.1950   27.2137  -77.1847 H         1 UNK         0.2946 
    123 H123      -76.8878   27.9109  -74.6060 H         1 UNK         0.1144 
    124 H124      -76.4917   29.9432  -75.9131 H         1 UNK         0.0793 
    125 H125      -77.2650   29.2482  -77.3387 H         1 UNK         0.0793 
    126 H126      -75.7424   28.5971  -76.7544 H         1 UNK         0.0793 
    127 H127      -78.8607   29.5949  -75.4046 H         1 UNK         0.2896 
@<TRIPOS>BOND
     1    1    2 1    
     2    1   67 1    
     3    1   68 1    
     4    1   69 1    
     5    2    3 2    
     6    2    4 am   BACKBONE|DICT|INTERRES
     7    4    5 1    
     8    4   70 1    
     9    5    6 1    
    10    5   65 1    
    11    5   71 1    
    12    6    7 1    
    13    6   72 1    
    14    6   73 1    
    15    7    8 1    
    16    8    9 1    
    17    8   74 1    
    18    8   75 1    
    19    9   10 ar   
    20    9   14 ar   
    21   10   11 ar   
    22   10   76 1    
    23   11   12 ar   
    24   11   48 1    
    25   12   13 ar   
    26   12   77 1    
    27   13   14 ar   
    28   13   15 1    
    29   14   78 1    
    30   15   16 1    
    31   15   79 1    
    32   15   80 1    
    33   16   17 1    
    34   17   18 1    
    35   17   81 1    
    36   17   82 1    
    37   18   19 1    
    38   18   22 1    
    39   18   83 1    
    40   19   20 am   BACKBONE|DICT|INTERRES
    41   19   21 2    
    42   20   84 1    
    43   20   85 1    
    44   22   23 am   BACKBONE|DICT|INTERRES
    45   22   86 1    
    46   23   24 2    
    47   23   25 1    
    48   25   26 1    
    49   25   27 1    
    50   25   87 1    
    51   26   88 1    
    52   26   89 1    
    53   26   90 1    
    54   27   28 am   BACKBONE|DICT|INTERRES
    55   27   91 1    
    56   28   29 2    
    57   28   30 1    
    58   30   31 1    
    59   30   32 1    
    60   30   92 1    
    61   31   93 1    
    62   31   94 1    
    63   31   95 1    
    64   32   33 am   BACKBONE|DICT|INTERRES
    65   32   96 1    
    66   33   34 2    
    67   33   35 1    
    68   35   36 1    
    69   35   37 1    
    70   35   97 1    
    71   36   98 1    
    72   36   99 1    
    73   36  100 1    
    74   37   38 am   BACKBONE|DICT|INTERRES
    75   37  101 1    
    76   38   39 2    
    77   38   40 1    
    78   40   41 1    
    79   40   42 1    
    80   40  102 1    
    81   41  103 1    
    82   41  104 1    
    83   41  105 1    
    84   42   43 am   BACKBONE|DICT|INTERRES
    85   42  106 1    
    86   43   44 2    
    87   43   45 1    
    88   45   46 1    
    89   45   49 1    
    90   45  107 1    
    91   46   47 1    
    92   46  108 1    
    93   46  109 1    
    94   47   48 1    
    95   48  110 1    
    96   48  111 1    
    97   49   50 am   BACKBONE|DICT|INTERRES
    98   49  112 1    
    99   50   51 2    
   100   50   52 1    
   101   52   53 1    
   102   52   54 1    
   103   52  113 1    
   104   53  114 1    
   105   53  115 1    
   106   53  116 1    
   107   54   55 am   BACKBONE|DICT|INTERRES
   108   54  117 1    
   109   55   56 2    
   110   55   57 1    
   111   57   58 1    
   112   57   59 1    
   113   57  118 1    
   114   58  119 1    
   115   58  120 1    
   116   58  121 1    
   117   59   60 am   BACKBONE|DICT|INTERRES
   118   59  122 1    
   119   60   61 2    
   120   60   62 1    
   121   62   63 1    
   122   62   64 1    
   123   62  123 1    
   124   63  124 1    
   125   63  125 1    
   126   63  126 1    
   127   64   65 am   BACKBONE|DICT|INTERRES
   128   64  127 1    
   129   65   66 2    
@<TRIPOS>SUBSTRUCTURE
     1 UNK         1 GROUP             0       ****    0 ROOT    
