@<TRIPOS>MOLECULE
3R135
127   129    1
SMALL
USER_CHARGES


@<TRIPOS>ATOM
      1 CA        -78.8111   29.5364  -75.0230 C.3       0 UNK        -0.1998 
      2 C         -80.1331   28.9738  -74.5259 C.2       0 UNK         0.4909 
      3 O         -81.1322   29.0299  -75.2428 O.2       0 UNK        -0.5240 
      4 N         -80.1306   28.4227  -73.3045 N.am      1 UNK        -0.4739 
      5 CA        -81.2736   27.8084  -72.6106 C.3       1 UNK         0.0864 
      6 C6        -82.3596   28.8248  -72.1646 C.3       11 UNK        -0.0881 
      7 S7        -81.7222   30.3126  -71.3065 S.3       11 UNK        -0.2682 
      8 C8        -80.8859   29.6496  -69.8239 C.3       11 UNK         0.0289 
      9 C9        -79.4174   29.3265  -70.0813 C.ar      11 UNK        -0.0687 
     10 C10       -78.9574   28.0071  -70.0162 C.ar      11 UNK        -0.0823 
     11 C11       -77.6246   27.7042  -70.3070 C.ar      11 UNK        -0.0830 
     12 C12       -76.7285   28.7386  -70.5863 C.ar      11 UNK        -0.1021 
     13 C13       -77.1682   30.0630  -70.6371 C.ar      11 UNK        -0.0753 
     14 C14       -78.5137   30.3510  -70.3864 C.ar      11 UNK        -0.0933 
     15 C15       -76.1857   31.1810  -70.9518 C.3       11 UNK         0.0166 
     16 S16       -76.1789   31.6279  -72.7188 S.3       11 UNK        -0.2615 
     17 C17       -75.3269   30.2168  -73.5069 C.3       11 UNK        -0.0865 
     18 CA        -73.7982   30.4338  -73.6550 C.3       10 UNK         0.0862 
     19 C         -73.0183   29.9835  -72.3930 C.2       10 UNK         0.5551 
     20 N         -72.4012   30.9108  -71.6740 N.am      10 UNK        -0.7319 
     21 O         -73.0045   28.8055  -72.0429 O.2       10 UNK        -0.5018 
     22 N         -73.2893   29.7469  -74.8463 N.am      10 UNK        -0.4509 
     23 C         -72.1941   30.1155  -75.5220 C.2       10 UNK         0.4899 
     24 O         -71.5084   31.0974  -75.2308 O.2       10 UNK        -0.4839 
     25 CA        -71.8267   29.2547  -76.7442 C.3       9 UNK         0.0222 
     26 CB        -70.4654   29.6274  -77.3705 C.3       9 UNK        -0.1966 
     27 N         -71.9100   27.8171  -76.4704 N.am      9 UNK        -0.4218 
     28 C         -71.1698   27.1004  -75.6092 C.2       9 UNK         0.5020 
     29 O         -70.2678   27.5790  -74.9199 O.2       9 UNK        -0.5274 
     30 CA        -71.4713   25.5916  -75.4808 C.3       8 UNK         0.0270 
     31 CB        -71.9526   25.2582  -74.0583 C.3       8 UNK        -0.1976 
     32 N         -72.4538   25.0911  -76.4481 N.am      8 UNK        -0.4313 
     33 C         -72.2278   24.9106  -77.7569 C.2       8 UNK         0.5041 
     34 O         -71.1273   25.0625  -78.2880 O.2       8 UNK        -0.5577 
     35 CA        -73.4439   24.5507  -78.6299 C.3       7 UNK         0.0284 
     36 CB        -73.6637   23.0300  -78.6549 C.3       7 UNK        -0.1958 
     37 N         -74.6782   25.2259  -78.2098 N.am      7 UNK        -0.4454 
     38 C         -74.8629   26.5552  -78.2164 C.2       7 UNK         0.5089 
     39 O         -74.0214   27.3588  -78.6162 O.2       7 UNK        -0.5125 
     40 CA        -76.1746   27.0857  -77.6119 C.3       6 UNK         0.0408 
     41 CB        -77.3453   26.9336  -78.5945 C.3       6 UNK        -0.1791 
     42 N         -76.4993   26.4322  -76.3439 N.am      6 UNK        -0.4762 
     43 C         -75.7631   26.5312  -75.2269 C.2       6 UNK         0.5007 
     44 O         -74.7796   27.2641  -75.1192 O.2       6 UNK        -0.5032 
     45 CA        -76.1871   25.6416  -74.0427 C.3       5 UNK         0.0783 
     46 C46       -77.2803   26.3519  -73.2153 C.3       11 UNK        -0.0857 
     47 S47       -77.8776   25.3742  -71.7921 S.3       11 UNK        -0.2512 
     48 C48       -77.1598   26.2562  -70.3644 C.3       11 UNK         0.0225 
     49 N         -76.6081   24.3153  -74.5029 N.am      5 UNK        -0.4615 
     50 C         -75.7899   23.3943  -75.0262 C.2       4 UNK         0.5053 
     51 O         -74.5780   23.5559  -75.1586 O.2       4 UNK        -0.5105 
     52 CA        -76.4409   22.0911  -75.5195 C.3       4 UNK         0.0263 
     53 CB        -76.6473   21.1155  -74.3502 C.3       4 UNK        -0.1981 
     54 N         -77.7185   22.3206  -76.2001 N.am      4 UNK        -0.4224 
     55 C         -77.8498   22.9824  -77.3592 C.2       3 UNK         0.4895 
     56 O         -76.8999   23.4181  -78.0083 O.2       3 UNK        -0.5091 
     57 CA        -79.2832   23.2511  -77.8530 C.3       3 UNK         0.0250 
     58 CB        -79.7909   22.0728  -78.6989 C.3       3 UNK        -0.1996 
     59 N         -80.2417   23.5360  -76.7770 N.am      3 UNK        -0.4254 
     60 C         -80.1206   24.5368  -75.8938 C.2       2 UNK         0.5004 
     61 O         -79.1707   25.3265  -75.8843 O.2       2 UNK        -0.5226 
     62 CA        -81.2107   24.6457  -74.8188 C.3       2 UNK         0.0269 
     63 CB        -81.2006   23.4222  -73.8818 C.3       2 UNK        -0.1926 
     64 N         -80.9558   25.8517  -74.0414 N.am      2 UNK        -0.4687 
     65 C         -81.8416   26.5734  -73.3482 C.2       1 UNK         0.5165 
     66 O         -83.0370   26.2859  -73.2622 O.2       1 UNK        -0.5079 
     67 H67       -78.9428   30.5602  -75.3722 H         1 UNK         0.0900 
     68 H68       -78.4327   28.9355  -75.8499 H         1 UNK         0.0900 
     69 H69       -78.0619   29.5442  -74.2332 H         1 UNK         0.0900 
     70 H70       -79.2834   28.4586  -72.7546 H         1 UNK         0.2959 
     71 H71       -80.8675   27.3714  -71.7030 H         1 UNK         0.1079 
     72 H72       -82.9251   29.1660  -73.0336 H         1 UNK         0.0837 
     73 H73       -83.0843   28.3416  -71.5067 H         1 UNK         0.0837 
     74 H74       -80.9424   30.3971  -69.0314 H         1 UNK         0.0685 
     75 H75       -81.4271   28.7761  -69.4569 H         1 UNK         0.0685 
     76 H76       -79.6417   27.2047  -69.7764 H         1 UNK         0.1434 
     77 H77       -75.6905   28.5105  -70.7889 H         1 UNK         0.1329 
     78 H78       -78.8616   31.3740  -70.4352 H         1 UNK         0.1335 
     79 H79       -75.1796   30.9075  -70.6330 H         1 UNK         0.0680 
     80 H80       -76.4506   32.0671  -70.3730 H         1 UNK         0.0680 
     81 H81       -75.7723   30.1215  -74.4983 H         1 UNK         0.1032 
     82 H82       -75.5579   29.2794  -73.0035 H         1 UNK         0.1032 
     83 H83       -73.6304   31.5027  -73.8061 H         1 UNK         0.0461 
     84 H84       -72.4100   31.8782  -71.9575 H         1 UNK         0.3453 
     85 H85       -71.8990   30.6355  -70.8447 H         1 UNK         0.3453 
     86 H86       -73.7542   28.8754  -75.0891 H         1 UNK         0.2984 
     87 H87       -72.5923   29.4598  -77.4934 H         1 UNK         0.0554 
     88 H88       -70.2490   29.0116  -78.2435 H         1 UNK         0.0847 
     89 H89       -69.6443   29.5078  -76.6631 H         1 UNK         0.0847 
     90 H90       -70.4595   30.6674  -77.6992 H         1 UNK         0.0847 
     91 H91       -72.6344   27.3311  -76.9864 H         1 UNK         0.3141 
     92 H92       -70.5316   25.0625  -75.6519 H         1 UNK         0.0743 
     93 H93       -72.8750   25.7846  -73.8128 H         1 UNK         0.0784 
     94 H94       -72.1311   24.1896  -73.9373 H         1 UNK         0.0784 
     95 H95       -71.2086   25.5475  -73.3149 H         1 UNK         0.0784 
     96 H96       -73.3686   24.8473  -76.0790 H         1 UNK         0.3213 
     97 H97       -73.2231   24.8779  -79.6482 H         1 UNK         0.0855 
     98 H98       -73.9101   22.6409  -77.6669 H         1 UNK         0.0814 
     99 H99       -72.7664   22.5115  -78.9955 H         1 UNK         0.0814 
    100 H100      -74.4726   22.7573  -79.3328 H         1 UNK         0.0814 
    101 H101      -75.4499   24.6280  -77.9214 H         1 UNK         0.3105 
    102 H102      -76.0426   28.1508  -77.4094 H         1 UNK         0.0547 
    103 H103      -77.1489   27.4779  -79.5190 H         1 UNK         0.0837 
    104 H104      -77.5193   25.8920  -78.8624 H         1 UNK         0.0837 
    105 H105      -78.2703   27.3291  -78.1743 H         1 UNK         0.0837 
    106 H106      -77.3333   25.8508  -76.3220 H         1 UNK         0.3020 
    107 H107      -75.3099   25.5104  -73.4053 H         1 UNK         0.1245 
    108 H108      -78.1415   26.5708  -73.8438 H         1 UNK         0.0781 
    109 H109      -76.9141   27.3185  -72.8751 H         1 UNK         0.0781 
    110 H110      -76.0715   26.1956  -70.4176 H         1 UNK         0.0836 
    111 H111      -77.4514   25.7450  -69.4459 H         1 UNK         0.0836 
    112 H112      -77.5984   24.1261  -74.4631 H         1 UNK         0.3022 
    113 H113      -75.7571   21.6284  -76.2343 H         1 UNK         0.0747 
    114 H114      -77.0353   20.1574  -74.6966 H         1 UNK         0.0793 
    115 H115      -75.7040   20.9154  -73.8397 H         1 UNK         0.0793 
    116 H116      -77.3416   21.5115  -73.6078 H         1 UNK         0.0793 
    117 H117      -78.5530   21.9908  -75.7380 H         1 UNK         0.3047 
    118 H118      -79.2435   24.1351  -78.4926 H         1 UNK         0.0822 
    119 H119      -80.7611   22.2928  -79.1450 H         1 UNK         0.0807 
    120 H120      -79.8910   21.1619  -78.1074 H         1 UNK         0.0807 
    121 H121      -79.1029   21.8558  -79.5175 H         1 UNK         0.0807 
    122 H122      -81.0472   22.9293  -76.7185 H         1 UNK         0.2946 
    123 H123      -82.1788   24.7322  -75.3175 H         1 UNK         0.1144 
    124 H124      -80.2363   23.3041  -73.3854 H         1 UNK         0.0793 
    125 H125      -81.4072   22.4995  -74.4248 H         1 UNK         0.0793 
    126 H126      -81.9624   23.5113  -73.1070 H         1 UNK         0.0793 
    127 H127      -80.0120   26.2030  -74.1372 H         1 UNK         0.2896 
@<TRIPOS>BOND
     1    1    2 1    
     2    1   67 1    
     3    1   68 1    
     4    1   69 1    
     5    2    3 2    
     6    2    4 am   BACKBONE|DICT|INTERRES
     7    4    5 1    
     8    4   70 1    
     9    5    6 1    
    10    5   65 1    
    11    5   71 1    
    12    6    7 1    
    13    6   72 1    
    14    6   73 1    
    15    7    8 1    
    16    8    9 1    
    17    8   74 1    
    18    8   75 1    
    19    9   10 ar   
    20    9   14 ar   
    21   10   11 ar   
    22   10   76 1    
    23   11   12 ar   
    24   11   48 1    
    25   12   13 ar   
    26   12   77 1    
    27   13   14 ar   
    28   13   15 1    
    29   14   78 1    
    30   15   16 1    
    31   15   79 1    
    32   15   80 1    
    33   16   17 1    
    34   17   18 1    
    35   17   81 1    
    36   17   82 1    
    37   18   19 1    
    38   18   22 1    
    39   18   83 1    
    40   19   20 am   BACKBONE|DICT|INTERRES
    41   19   21 2    
    42   20   84 1    
    43   20   85 1    
    44   22   23 am   BACKBONE|DICT|INTERRES
    45   22   86 1    
    46   23   24 2    
    47   23   25 1    
    48   25   26 1    
    49   25   27 1    
    50   25   87 1    
    51   26   88 1    
    52   26   89 1    
    53   26   90 1    
    54   27   28 am   BACKBONE|DICT|INTERRES
    55   27   91 1    
    56   28   29 2    
    57   28   30 1    
    58   30   31 1    
    59   30   32 1    
    60   30   92 1    
    61   31   93 1    
    62   31   94 1    
    63   31   95 1    
    64   32   33 am   BACKBONE|DICT|INTERRES
    65   32   96 1    
    66   33   34 2    
    67   33   35 1    
    68   35   36 1    
    69   35   37 1    
    70   35   97 1    
    71   36   98 1    
    72   36   99 1    
    73   36  100 1    
    74   37   38 am   BACKBONE|DICT|INTERRES
    75   37  101 1    
    76   38   39 2    
    77   38   40 1    
    78   40   41 1    
    79   40   42 1    
    80   40  102 1    
    81   41  103 1    
    82   41  104 1    
    83   41  105 1    
    84   42   43 am   BACKBONE|DICT|INTERRES
    85   42  106 1    
    86   43   44 2    
    87   43   45 1    
    88   45   46 1    
    89   45   49 1    
    90   45  107 1    
    91   46   47 1    
    92   46  108 1    
    93   46  109 1    
    94   47   48 1    
    95   48  110 1    
    96   48  111 1    
    97   49   50 am   BACKBONE|DICT|INTERRES
    98   49  112 1    
    99   50   51 2    
   100   50   52 1    
   101   52   53 1    
   102   52   54 1    
   103   52  113 1    
   104   53  114 1    
   105   53  115 1    
   106   53  116 1    
   107   54   55 am   BACKBONE|DICT|INTERRES
   108   54  117 1    
   109   55   56 2    
   110   55   57 1    
   111   57   58 1    
   112   57   59 1    
   113   57  118 1    
   114   58  119 1    
   115   58  120 1    
   116   58  121 1    
   117   59   60 am   BACKBONE|DICT|INTERRES
   118   59  122 1    
   119   60   61 2    
   120   60   62 1    
   121   62   63 1    
   122   62   64 1    
   123   62  123 1    
   124   63  124 1    
   125   63  125 1    
   126   63  126 1    
   127   64   65 am   BACKBONE|DICT|INTERRES
   128   64  127 1    
   129   65   66 2    
@<TRIPOS>SUBSTRUCTURE
     1 UNK         1 GROUP             0       ****    0 ROOT    
