@<TRIPOS>MOLECULE
3R135
127   129    1
SMALL
USER_CHARGES


@<TRIPOS>ATOM
      1 CA        -80.4991   29.9128  -75.7895 C.3       0 UNK        -0.1998 
      2 C         -80.3430   28.8221  -74.7419 C.2       0 UNK         0.4909 
      3 O         -79.3695   28.0729  -74.7814 O.2       0 UNK        -0.5240 
      4 N         -81.2962   28.7181  -73.8076 N.am      1 UNK        -0.4739 
      5 CA        -81.2865   27.7532  -72.7009 C.3       1 UNK         0.0864 
      6 C6        -82.0186   28.2920  -71.4393 C.3       11 UNK        -0.0881 
      7 S7        -81.5162   29.9775  -70.9396 S.3       11 UNK        -0.2682 
      8 C8        -80.1209   29.6692  -69.8062 C.3       11 UNK         0.0289 
      9 C9        -78.8598   29.2355  -70.5427 C.ar      11 UNK        -0.0687 
     10 C10       -78.2631   28.0035  -70.2574 C.ar      11 UNK        -0.0823 
     11 C11       -77.1209   27.5933  -70.9518 C.ar      11 UNK        -0.0830 
     12 C12       -76.5637   28.4304  -71.9242 C.ar      11 UNK        -0.1021 
     13 C13       -77.1527   29.6609  -72.2207 C.ar      11 UNK        -0.0753 
     14 C14       -78.2920   30.0637  -71.5177 C.ar      11 UNK        -0.0933 
     15 C15       -76.5944   30.5335  -73.3344 C.3       11 UNK         0.0166 
     16 S16       -75.4441   31.7901  -72.6962 S.3       11 UNK        -0.2615 
     17 C17       -73.8486   30.8974  -72.7207 C.3       11 UNK        -0.0865 
     18 CA        -73.0011   31.2181  -73.9839 C.3       10 UNK         0.0862 
     19 C         -72.4622   32.6795  -73.9833 C.2       10 UNK         0.5551 
     20 N         -71.3624   32.9688  -73.3013 N.am      10 UNK        -0.7319 
     21 O         -73.0357   33.5531  -74.6290 O.2       10 UNK        -0.5018 
     22 N         -71.9739   30.1966  -74.2589 N.am      10 UNK        -0.4509 
     23 C         -70.9282   29.8490  -73.4994 C.2       10 UNK         0.4899 
     24 O         -70.7266   30.2926  -72.3673 O.2       10 UNK        -0.4839 
     25 CA        -69.9286   28.8560  -74.1292 C.3       9 UNK         0.0222 
     26 CB        -68.6338   28.7237  -73.3046 C.3       9 UNK        -0.1966 
     27 N         -70.4995   27.5216  -74.3290 N.am      9 UNK        -0.4218 
     28 C         -71.3981   27.1841  -75.2634 C.2       9 UNK         0.5020 
     29 O         -71.8654   27.9870  -76.0767 O.2       9 UNK        -0.5274 
     30 CA        -71.8277   25.7056  -75.2804 C.3       8 UNK         0.0270 
     31 CB        -72.3779   25.2565  -73.9120 C.3       8 UNK        -0.1976 
     32 N         -72.8444   25.4657  -76.3060 N.am      8 UNK        -0.4313 
     33 C         -72.5884   25.1313  -77.5788 C.2       8 UNK         0.5041 
     34 O         -71.4507   24.9391  -78.0129 O.2       8 UNK        -0.5577 
     35 CA        -73.7822   24.9555  -78.5401 C.3       7 UNK         0.0284 
     36 CB        -73.9734   23.4722  -78.8993 C.3       7 UNK        -0.1958 
     37 N         -75.0418   25.4755  -78.0074 N.am      7 UNK        -0.4454 
     38 C         -75.3991   26.7666  -77.9984 C.2       7 UNK         0.5089 
     39 O         -74.7469   27.6637  -78.5325 O.2       7 UNK        -0.5125 
     40 CA        -76.6942   27.1181  -77.2435 C.3       6 UNK         0.0408 
     41 CB        -77.8916   27.1526  -78.2055 C.3       6 UNK        -0.1791 
     42 N         -76.9884   26.1945  -76.1447 N.am      6 UNK        -0.4762 
     43 C         -76.2326   26.0360  -75.0501 C.2       6 UNK         0.5007 
     44 O         -75.2050   26.6775  -74.8390 O.2       6 UNK        -0.5032 
     45 CA        -76.6556   24.9378  -74.0560 C.3       5 UNK         0.0783 
     46 C46       -77.7880   25.4233  -73.1193 C.3       11 UNK        -0.0857 
     47 S47       -77.5573   24.8809  -71.3938 S.3       11 UNK        -0.2512 
     48 C48       -76.5216   26.2169  -70.7028 C.3       11 UNK         0.0225 
     49 N         -77.0372   23.7109  -74.7579 N.am      5 UNK        -0.4615 
     50 C         -76.1932   22.8790  -75.3778 C.2       4 UNK         0.5053 
     51 O         -74.9730   23.0281  -75.3910 O.2       4 UNK        -0.5105 
     52 CA        -76.8208   21.6847  -76.1186 C.3       4 UNK         0.0263 
     53 CB        -76.8898   20.4583  -75.1947 C.3       4 UNK        -0.1981 
     54 N         -78.1604   21.9770  -76.6404 N.am      4 UNK        -0.4224 
     55 C         -78.4025   22.7868  -77.6815 C.2       3 UNK         0.4895 
     56 O         -77.5199   23.3398  -78.3382 O.2       3 UNK        -0.5091 
     57 CA        -79.8826   23.0600  -78.0135 C.3       3 UNK         0.0250 
     58 CB        -80.4828   21.8972  -78.8205 C.3       3 UNK        -0.1996 
     59 N         -80.7191   23.3314  -76.8337 N.am      3 UNK        -0.4254 
     60 C         -80.5012   24.3387  -75.9767 C.2       2 UNK         0.5004 
     61 O         -79.5472   25.1110  -76.0787 O.2       2 UNK        -0.5226 
     62 CA        -81.4651   24.4960  -74.7919 C.3       2 UNK         0.0269 
     63 CB        -81.3040   23.3257  -73.7974 C.3       2 UNK        -0.1926 
     64 N         -81.1659   25.7763  -74.1462 N.am      2 UNK        -0.4687 
     65 C         -81.8440   26.3880  -73.1707 C.2       1 UNK         0.5165 
     66 O         -82.8773   25.9329  -72.6762 O.2       1 UNK        -0.5079 
     67 H67       -81.3965   30.5097  -75.6265 H         1 UNK         0.0900 
     68 H68       -80.5585   29.4703  -76.7835 H         1 UNK         0.0900 
     69 H69       -79.6375   30.5795  -75.7636 H         1 UNK         0.0900 
     70 H70       -82.0836   29.3502  -73.8240 H         1 UNK         0.2959 
     71 H71       -80.2483   27.5751  -72.4119 H         1 UNK         0.1079 
     72 H72       -83.0957   28.3264  -71.6134 H         1 UNK         0.0837 
     73 H73       -81.8732   27.6121  -70.5977 H         1 UNK         0.0837 
     74 H74       -79.9055   30.5888  -69.2606 H         1 UNK         0.0685 
     75 H75       -80.4178   28.9319  -69.0587 H         1 UNK         0.0685 
     76 H76       -78.7004   27.3484  -69.5157 H         1 UNK         0.1434 
     77 H77       -75.6970   28.1040  -72.4829 H         1 UNK         0.1329 
     78 H78       -78.7553   31.0134  -71.7483 H         1 UNK         0.1335 
     79 H79       -76.1023   29.9229  -74.0939 H         1 UNK         0.0680 
     80 H80       -77.4164   31.0390  -73.8443 H         1 UNK         0.0680 
     81 H81       -74.0423   29.8263  -72.6643 H         1 UNK         0.1032 
     82 H82       -73.2959   31.1423  -71.8119 H         1 UNK         0.1032 
     83 H83       -73.6710   31.1439  -74.8422 H         1 UNK         0.0461 
     84 H84       -70.9022   32.2354  -72.7751 H         1 UNK         0.3453 
     85 H85       -70.9998   33.9085  -73.3012 H         1 UNK         0.3453 
     86 H86       -72.0579   29.7214  -75.1535 H         1 UNK         0.2984 
     87 H87       -69.6518   29.2575  -75.1065 H         1 UNK         0.0554 
     88 H88       -67.9056   28.0861  -73.8066 H         1 UNK         0.0847 
     89 H89       -68.8230   28.3045  -72.3155 H         1 UNK         0.0847 
     90 H90       -68.1616   29.6965  -73.1601 H         1 UNK         0.0847 
     91 H91       -70.1891   26.8071  -73.6865 H         1 UNK         0.3141 
     92 H92       -70.9448   25.1034  -75.5048 H         1 UNK         0.0743 
     93 H93       -73.1261   25.9479  -73.5243 H         1 UNK         0.0784 
     94 H94       -72.8355   24.2685  -73.9720 H         1 UNK         0.0784 
     95 H95       -71.5838   25.1923  -73.1677 H         1 UNK         0.0784 
     96 H96       -73.7958   25.6925  -76.0414 H         1 UNK         0.3213 
     97 H97       -73.5425   25.4982  -79.4570 H         1 UNK         0.0855 
     98 H98       -74.1889   22.8683  -78.0176 H         1 UNK         0.0814 
     99 H99       -73.0742   23.0630  -79.3619 H         1 UNK         0.0814 
    100 H100      -74.7921   23.3362  -79.6065 H         1 UNK         0.0814 
    101 H101      -75.6720   24.8063  -77.5846 H         1 UNK         0.3105 
    102 H102      -76.5703   28.1145  -76.8141 H         1 UNK         0.0547 
    103 H103      -77.7179   27.8532  -79.0231 H         1 UNK         0.0837 
    104 H104      -78.0819   26.1727  -78.6454 H         1 UNK         0.0837 
    105 H105      -78.7996   27.4693  -77.6914 H         1 UNK         0.0837 
    106 H106      -77.8734   25.6899  -76.2010 H         1 UNK         0.3020 
    107 H107      -75.7667   24.7172  -73.4597 H         1 UNK         0.1245 
    108 H108      -78.7455   25.0282  -73.4481 H         1 UNK         0.0781 
    109 H109      -77.9277   26.5028  -73.1552 H         1 UNK         0.0781 
    110 H110      -75.5205   26.1491  -71.1322 H         1 UNK         0.0836 
    111 H111      -76.4041   26.0583  -69.6294 H         1 UNK         0.0836 
    112 H112      -78.0263   23.5355  -74.8417 H         1 UNK         0.3022 
    113 H113      -76.1703   21.4408  -76.9617 H         1 UNK         0.0747 
    114 H114      -77.2635   19.5822  -75.7254 H         1 UNK         0.0793 
    115 H115      -75.9007   20.2043  -74.8104 H         1 UNK         0.0793 
    116 H116      -77.5378   20.6337  -74.3349 H         1 UNK         0.0793 
    117 H117      -78.9441   21.5556  -76.1633 H         1 UNK         0.3047 
    118 H118      -79.9092   23.9540  -78.6407 H         1 UNK         0.0822 
    119 H119      -81.4918   22.1303  -79.1616 H         1 UNK         0.0807 
    120 H120      -80.5298   20.9774  -78.2362 H         1 UNK         0.0807 
    121 H121      -79.8840   21.6889  -79.7085 H         1 UNK         0.0807 
    122 H122      -81.5165   22.7275  -76.6916 H         1 UNK         0.2946 
    123 H123      -82.4873   24.5258  -75.1749 H         1 UNK         0.1144 
    124 H124      -81.9948   23.4126  -72.9591 H         1 UNK         0.0793 
    125 H125      -80.2948   23.2711  -73.3888 H         1 UNK         0.0793 
    126 H126      -81.5132   22.3680  -74.2755 H         1 UNK         0.0793 
    127 H127      -80.3645   26.2594  -74.5505 H         1 UNK         0.2896 
@<TRIPOS>BOND
     1    1    2 1    
     2    1   67 1    
     3    1   68 1    
     4    1   69 1    
     5    2    3 2    
     6    2    4 am   BACKBONE|DICT|INTERRES
     7    4    5 1    
     8    4   70 1    
     9    5    6 1    
    10    5   65 1    
    11    5   71 1    
    12    6    7 1    
    13    6   72 1    
    14    6   73 1    
    15    7    8 1    
    16    8    9 1    
    17    8   74 1    
    18    8   75 1    
    19    9   10 ar   
    20    9   14 ar   
    21   10   11 ar   
    22   10   76 1    
    23   11   12 ar   
    24   11   48 1    
    25   12   13 ar   
    26   12   77 1    
    27   13   14 ar   
    28   13   15 1    
    29   14   78 1    
    30   15   16 1    
    31   15   79 1    
    32   15   80 1    
    33   16   17 1    
    34   17   18 1    
    35   17   81 1    
    36   17   82 1    
    37   18   19 1    
    38   18   22 1    
    39   18   83 1    
    40   19   20 am   BACKBONE|DICT|INTERRES
    41   19   21 2    
    42   20   84 1    
    43   20   85 1    
    44   22   23 am   BACKBONE|DICT|INTERRES
    45   22   86 1    
    46   23   24 2    
    47   23   25 1    
    48   25   26 1    
    49   25   27 1    
    50   25   87 1    
    51   26   88 1    
    52   26   89 1    
    53   26   90 1    
    54   27   28 am   BACKBONE|DICT|INTERRES
    55   27   91 1    
    56   28   29 2    
    57   28   30 1    
    58   30   31 1    
    59   30   32 1    
    60   30   92 1    
    61   31   93 1    
    62   31   94 1    
    63   31   95 1    
    64   32   33 am   BACKBONE|DICT|INTERRES
    65   32   96 1    
    66   33   34 2    
    67   33   35 1    
    68   35   36 1    
    69   35   37 1    
    70   35   97 1    
    71   36   98 1    
    72   36   99 1    
    73   36  100 1    
    74   37   38 am   BACKBONE|DICT|INTERRES
    75   37  101 1    
    76   38   39 2    
    77   38   40 1    
    78   40   41 1    
    79   40   42 1    
    80   40  102 1    
    81   41  103 1    
    82   41  104 1    
    83   41  105 1    
    84   42   43 am   BACKBONE|DICT|INTERRES
    85   42  106 1    
    86   43   44 2    
    87   43   45 1    
    88   45   46 1    
    89   45   49 1    
    90   45  107 1    
    91   46   47 1    
    92   46  108 1    
    93   46  109 1    
    94   47   48 1    
    95   48  110 1    
    96   48  111 1    
    97   49   50 am   BACKBONE|DICT|INTERRES
    98   49  112 1    
    99   50   51 2    
   100   50   52 1    
   101   52   53 1    
   102   52   54 1    
   103   52  113 1    
   104   53  114 1    
   105   53  115 1    
   106   53  116 1    
   107   54   55 am   BACKBONE|DICT|INTERRES
   108   54  117 1    
   109   55   56 2    
   110   55   57 1    
   111   57   58 1    
   112   57   59 1    
   113   57  118 1    
   114   58  119 1    
   115   58  120 1    
   116   58  121 1    
   117   59   60 am   BACKBONE|DICT|INTERRES
   118   59  122 1    
   119   60   61 2    
   120   60   62 1    
   121   62   63 1    
   122   62   64 1    
   123   62  123 1    
   124   63  124 1    
   125   63  125 1    
   126   63  126 1    
   127   64   65 am   BACKBONE|DICT|INTERRES
   128   64  127 1    
   129   65   66 2    
@<TRIPOS>SUBSTRUCTURE
     1 UNK         1 GROUP             0       ****    0 ROOT    
