@<TRIPOS>MOLECULE
3R135
127   129    1
SMALL
USER_CHARGES


@<TRIPOS>ATOM
      1 CA        -83.2386   24.7365  -68.8527 C.3       0 UNK        -0.1998 
      2 C         -83.2365   25.7894  -69.9509 C.2       0 UNK         0.4909 
      3 O         -83.8538   26.8431  -69.7910 O.2       0 UNK        -0.5240 
      4 N         -82.5536   25.5103  -71.0645 N.am      1 UNK        -0.4739 
      5 CA        -82.4485   26.3744  -72.2401 C.3       1 UNK         0.0864 
      6 C6        -81.5221   27.6044  -72.0192 C.3       11 UNK        -0.0881 
      7 S7        -79.7782   27.1795  -71.6683 S.3       11 UNK        -0.2682 
      8 C8        -79.1367   28.7458  -70.9815 C.3       11 UNK         0.0289 
      9 C9        -78.3653   29.5733  -72.0061 C.ar      11 UNK        -0.0687 
     10 C10       -78.9799   29.9953  -73.1880 C.ar      11 UNK        -0.0823 
     11 C11       -78.2785   30.7506  -74.1311 C.ar      11 UNK        -0.0830 
     12 C12       -76.9545   31.1148  -73.8729 C.ar      11 UNK        -0.1021 
     13 C13       -76.3307   30.7216  -72.6852 C.ar      11 UNK        -0.0753 
     14 C14       -77.0397   29.9483  -71.7584 C.ar      11 UNK        -0.0933 
     15 C15       -74.9016   31.1619  -72.3967 C.3       11 UNK         0.0166 
     16 S16       -73.6769   29.9461  -72.9748 S.3       11 UNK        -0.2615 
     17 C17       -73.8420   28.6611  -71.6895 C.3       11 UNK        -0.0865 
     18 CA        -72.6585   27.6584  -71.6638 C.3       10 UNK         0.0862 
     19 C         -72.7646   26.7018  -70.4380 C.2       10 UNK         0.5551 
     20 N         -72.8457   25.3888  -70.6157 N.am      10 UNK        -0.7319 
     21 O         -72.7700   27.1648  -69.3001 O.2       10 UNK        -0.5018 
     22 N         -72.4895   26.9999  -72.9688 N.am      10 UNK        -0.4509 
     23 C         -71.3963   26.3423  -73.3734 C.2       10 UNK         0.4899 
     24 O         -70.4083   26.1419  -72.6665 O.2       10 UNK        -0.4839 
     25 CA        -71.3933   25.8456  -74.8293 C.3       9 UNK         0.0222 
     26 CB        -72.1059   24.4885  -74.9437 C.3       9 UNK        -0.1966 
     27 N         -71.9999   26.7954  -75.7664 N.am      9 UNK        -0.4218 
     28 C         -71.5479   28.0357  -76.0103 C.2       9 UNK         0.5020 
     29 O         -70.5431   28.5162  -75.4809 O.2       9 UNK        -0.5274 
     30 CA        -72.3444   28.8618  -77.0408 C.3       8 UNK         0.0270 
     31 CB        -71.6397   30.1737  -77.4461 C.3       8 UNK        -0.1976 
     32 N         -72.7119   28.0811  -78.2285 N.am      8 UNK        -0.4313 
     33 C         -71.8894   27.4088  -79.0524 C.2       8 UNK         0.5041 
     34 O         -70.6604   27.4481  -78.9708 O.2       8 UNK        -0.5577 
     35 CA        -72.5360   26.5453  -80.1595 C.3       7 UNK         0.0284 
     36 CB        -71.7345   25.2537  -80.4314 C.3       7 UNK        -0.1958 
     37 N         -73.9552   26.2322  -79.9384 N.am      7 UNK        -0.4454 
     38 C         -74.4911   25.5583  -78.9105 C.2       7 UNK         0.5089 
     39 O         -73.8455   25.0697  -77.9811 O.2       7 UNK        -0.5125 
     40 CA        -76.0278   25.4875  -78.8919 C.3       6 UNK         0.0408 
     41 CB        -76.5100   24.0283  -78.8815 C.3       6 UNK        -0.1791 
     42 N         -76.6007   26.1906  -77.7422 N.am      6 UNK        -0.4762 
     43 C         -76.3374   27.4513  -77.3618 C.2       6 UNK         0.5007 
     44 O         -75.5829   28.2111  -77.9716 O.2       6 UNK        -0.5032 
     45 CA        -77.0280   27.9367  -76.0724 C.3       5 UNK         0.0783 
     46 C46       -78.4266   28.5345  -76.3784 C.3       11 UNK        -0.0857 
     47 S47       -78.3050   30.2860  -76.8806 S.3       11 UNK        -0.2512 
     48 C48       -78.9597   31.1702  -75.4268 C.3       11 UNK         0.0225 
     49 N         -77.0921   26.8706  -75.0693 N.am      5 UNK        -0.4615 
     50 C         -76.0351   26.4001  -74.3916 C.2       4 UNK         0.5053 
     51 O         -74.8980   26.8582  -74.4977 O.2       4 UNK        -0.5105 
     52 CA        -76.2749   25.2141  -73.4402 C.3       4 UNK         0.0263 
     53 CB        -76.3891   25.6907  -71.9848 C.3       4 UNK        -0.1981 
     54 N         -77.4740   24.4521  -73.7984 N.am      4 UNK        -0.4224 
     55 C         -77.4810   23.4698  -74.7102 C.2       3 UNK         0.4895 
     56 O         -76.4750   23.0645  -75.2916 O.2       3 UNK        -0.5091 
     57 CA        -78.8417   22.8390  -75.0449 C.3       3 UNK         0.0250 
     58 CB        -79.1776   21.7175  -74.0489 C.3       3 UNK        -0.1996 
     59 N         -79.9524   23.7938  -75.0928 N.am      3 UNK        -0.4254 
     60 C         -80.0573   24.8358  -75.9259 C.2       2 UNK         0.5004 
     61 O         -79.1610   25.1876  -76.6920 O.2       2 UNK        -0.5226 
     62 CA        -81.3784   25.6259  -75.9040 C.3       2 UNK         0.0269 
     63 CB        -82.5242   24.8067  -76.5302 C.3       2 UNK        -0.1926 
     64 N         -81.7612   26.1667  -74.5898 N.am      2 UNK        -0.4687 
     65 C         -82.0716   25.5101  -73.4610 C.2       1 UNK         0.5165 
     66 O         -82.0671   24.2789  -73.3584 O.2       1 UNK        -0.5079 
     67 H67       -82.8174   25.1498  -67.9367 H         1 UNK         0.0900 
     68 H68       -84.2581   24.4131  -68.6442 H         1 UNK         0.0900 
     69 H69       -82.6539   23.8592  -69.1288 H         1 UNK         0.0900 
     70 H70       -82.1108   24.6079  -71.1870 H         1 UNK         0.2959 
     71 H71       -83.4523   26.7484  -72.4548 H         1 UNK         0.1079 
     72 H72       -81.5674   28.2705  -72.8795 H         1 UNK         0.0837 
     73 H73       -81.9068   28.1932  -71.1855 H         1 UNK         0.0837 
     74 H74       -79.9503   29.3454  -70.5720 H         1 UNK         0.0685 
     75 H75       -78.4920   28.4977  -70.1372 H         1 UNK         0.0685 
     76 H76       -80.0067   29.7286  -73.3824 H         1 UNK         0.1434 
     77 H77       -76.4105   31.7047  -74.5981 H         1 UNK         0.1329 
     78 H78       -76.5602   29.6474  -70.8374 H         1 UNK         0.1335 
     79 H79       -74.7031   32.1137  -72.8917 H         1 UNK         0.0680 
     80 H80       -74.7682   31.3469  -71.3297 H         1 UNK         0.0680 
     81 H81       -73.9350   29.1575  -70.7216 H         1 UNK         0.1032 
     82 H82       -74.7825   28.1381  -71.8579 H         1 UNK         0.1032 
     83 H83       -71.7505   28.2402  -71.4939 H         1 UNK         0.0461 
     84 H84       -72.8128   24.9998  -71.5434 H         1 UNK         0.3453 
     85 H85       -72.9076   24.7835  -69.8126 H         1 UNK         0.3453 
     86 H86       -73.2720   27.0884  -73.6139 H         1 UNK         0.2984 
     87 H87       -70.3526   25.7096  -75.1301 H         1 UNK         0.0554 
     88 H88       -71.6724   23.7581  -74.2592 H         1 UNK         0.0847 
     89 H89       -72.0183   24.0799  -75.9508 H         1 UNK         0.0847 
     90 H90       -73.1683   24.5678  -74.7107 H         1 UNK         0.0847 
     91 H91       -72.8278   26.4788  -76.2558 H         1 UNK         0.3141 
     92 H92       -73.2809   29.1300  -76.5487 H         1 UNK         0.0743 
     93 H93       -70.6721   29.9859  -77.9126 H         1 UNK         0.0784 
     94 H94       -72.2452   30.7483  -78.1469 H         1 UNK         0.0784 
     95 H95       -71.4647   30.8070  -76.5754 H         1 UNK         0.0784 
     96 H96       -73.7151   27.9916  -78.3759 H         1 UNK         0.3213 
     97 H97       -72.4986   27.1518  -81.0657 H         1 UNK         0.0855 
     98 H98       -71.6622   24.6281  -79.5411 H         1 UNK         0.0814 
     99 H99       -70.7165   25.4821  -80.7495 H         1 UNK         0.0814 
    100 H100      -72.1922   24.6604  -81.2229 H         1 UNK         0.0814 
    101 H101      -74.5909   26.6251  -80.6200 H         1 UNK         0.3105 
    102 H102      -76.4194   25.9669  -79.7910 H         1 UNK         0.0547 
    103 H103      -76.1287   23.4843  -79.7464 H         1 UNK         0.0837 
    104 H104      -76.1712   23.5004  -77.9891 H         1 UNK         0.0837 
    105 H105      -77.5981   23.9678  -78.9120 H         1 UNK         0.0837 
    106 H106      -77.2862   25.6730  -77.2005 H         1 UNK         0.3020 
    107 H107      -76.3974   28.7215  -75.6460 H         1 UNK         0.1245 
    108 H108      -79.0762   28.4614  -75.5062 H         1 UNK         0.0781 
    109 H109      -78.9431   27.9762  -77.1619 H         1 UNK         0.0781 
    110 H110      -80.0369   31.0053  -75.3701 H         1 UNK         0.0836 
    111 H111      -78.8250   32.2426  -75.5746 H         1 UNK         0.0836 
    112 H112      -77.9808   26.4067  -74.9624 H         1 UNK         0.3022 
    113 H113      -75.4064   24.5550  -73.5035 H         1 UNK         0.0747 
    114 H114      -75.4092   25.9550  -71.5945 H         1 UNK         0.0793 
    115 H115      -77.0205   26.5731  -71.8916 H         1 UNK         0.0793 
    116 H116      -76.7896   24.9146  -71.3324 H         1 UNK         0.0793 
    117 H117      -78.3414   24.7118  -73.3505 H         1 UNK         0.3047 
    118 H118      -78.7548   22.3961  -76.0395 H         1 UNK         0.0822 
    119 H119      -80.0849   21.1878  -74.3401 H         1 UNK         0.0807 
    120 H120      -79.3251   22.1041  -73.0396 H         1 UNK         0.0807 
    121 H121      -78.3743   20.9807  -74.0033 H         1 UNK         0.0807 
    122 H122      -80.7318   23.6360  -74.4577 H         1 UNK         0.2946 
    123 H123      -81.2204   26.4946  -76.5461 H         1 UNK         0.1144 
    124 H124      -83.4328   25.4022  -76.6188 H         1 UNK         0.0793 
    125 H125      -82.7637   23.9178  -75.9460 H         1 UNK         0.0793 
    126 H126      -82.2591   24.4715  -77.5340 H         1 UNK         0.0793 
    127 H127      -81.7799   27.1758  -74.5485 H         1 UNK         0.2896 
@<TRIPOS>BOND
     1    1    2 1    
     2    1   67 1    
     3    1   68 1    
     4    1   69 1    
     5    2    3 2    
     6    2    4 am   BACKBONE|DICT|INTERRES
     7    4    5 1    
     8    4   70 1    
     9    5    6 1    
    10    5   65 1    
    11    5   71 1    
    12    6    7 1    
    13    6   72 1    
    14    6   73 1    
    15    7    8 1    
    16    8    9 1    
    17    8   74 1    
    18    8   75 1    
    19    9   10 ar   
    20    9   14 ar   
    21   10   11 ar   
    22   10   76 1    
    23   11   12 ar   
    24   11   48 1    
    25   12   13 ar   
    26   12   77 1    
    27   13   14 ar   
    28   13   15 1    
    29   14   78 1    
    30   15   16 1    
    31   15   79 1    
    32   15   80 1    
    33   16   17 1    
    34   17   18 1    
    35   17   81 1    
    36   17   82 1    
    37   18   19 1    
    38   18   22 1    
    39   18   83 1    
    40   19   20 am   BACKBONE|DICT|INTERRES
    41   19   21 2    
    42   20   84 1    
    43   20   85 1    
    44   22   23 am   BACKBONE|DICT|INTERRES
    45   22   86 1    
    46   23   24 2    
    47   23   25 1    
    48   25   26 1    
    49   25   27 1    
    50   25   87 1    
    51   26   88 1    
    52   26   89 1    
    53   26   90 1    
    54   27   28 am   BACKBONE|DICT|INTERRES
    55   27   91 1    
    56   28   29 2    
    57   28   30 1    
    58   30   31 1    
    59   30   32 1    
    60   30   92 1    
    61   31   93 1    
    62   31   94 1    
    63   31   95 1    
    64   32   33 am   BACKBONE|DICT|INTERRES
    65   32   96 1    
    66   33   34 2    
    67   33   35 1    
    68   35   36 1    
    69   35   37 1    
    70   35   97 1    
    71   36   98 1    
    72   36   99 1    
    73   36  100 1    
    74   37   38 am   BACKBONE|DICT|INTERRES
    75   37  101 1    
    76   38   39 2    
    77   38   40 1    
    78   40   41 1    
    79   40   42 1    
    80   40  102 1    
    81   41  103 1    
    82   41  104 1    
    83   41  105 1    
    84   42   43 am   BACKBONE|DICT|INTERRES
    85   42  106 1    
    86   43   44 2    
    87   43   45 1    
    88   45   46 1    
    89   45   49 1    
    90   45  107 1    
    91   46   47 1    
    92   46  108 1    
    93   46  109 1    
    94   47   48 1    
    95   48  110 1    
    96   48  111 1    
    97   49   50 am   BACKBONE|DICT|INTERRES
    98   49  112 1    
    99   50   51 2    
   100   50   52 1    
   101   52   53 1    
   102   52   54 1    
   103   52  113 1    
   104   53  114 1    
   105   53  115 1    
   106   53  116 1    
   107   54   55 am   BACKBONE|DICT|INTERRES
   108   54  117 1    
   109   55   56 2    
   110   55   57 1    
   111   57   58 1    
   112   57   59 1    
   113   57  118 1    
   114   58  119 1    
   115   58  120 1    
   116   58  121 1    
   117   59   60 am   BACKBONE|DICT|INTERRES
   118   59  122 1    
   119   60   61 2    
   120   60   62 1    
   121   62   63 1    
   122   62   64 1    
   123   62  123 1    
   124   63  124 1    
   125   63  125 1    
   126   63  126 1    
   127   64   65 am   BACKBONE|DICT|INTERRES
   128   64  127 1    
   129   65   66 2    
@<TRIPOS>SUBSTRUCTURE
     1 UNK         1 GROUP             0       ****    0 ROOT    
