@<TRIPOS>MOLECULE
3R135
127   129    1
SMALL
USER_CHARGES


@<TRIPOS>ATOM
      1 CA        -86.5858   27.3020  -71.3608 C.3       0 UNK        -0.1998 
      2 C         -85.6930   27.2144  -72.5894 C.2       0 UNK         0.4909 
      3 O         -86.1865   26.9597  -73.6884 O.2       0 UNK        -0.5240 
      4 N         -84.3828   27.4275  -72.4121 N.am      1 UNK        -0.4739 
      5 CA        -83.3640   27.3448  -73.4669 C.3       1 UNK         0.0864 
      6 C6        -82.0232   27.9893  -73.0274 C.3       11 UNK        -0.0881 
      7 S7        -81.3769   27.3482  -71.4383 S.3       11 UNK        -0.2682 
      8 C8        -80.4836   28.7962  -70.7930 C.3       11 UNK         0.0289 
      9 C9        -79.1431   28.9782  -71.4888 C.ar      11 UNK        -0.0687 
     10 C10       -79.0490   29.7398  -72.6557 C.ar      11 UNK        -0.0823 
     11 C11       -77.8214   29.9039  -73.3027 C.ar      11 UNK        -0.0830 
     12 C12       -76.6795   29.3016  -72.7608 C.ar      11 UNK        -0.1021 
     13 C13       -76.7519   28.5404  -71.5858 C.ar      11 UNK        -0.0753 
     14 C14       -77.9925   28.3887  -70.9590 C.ar      11 UNK        -0.0933 
     15 C15       -75.5377   27.8638  -70.9425 C.3       11 UNK         0.0166 
     16 S16       -73.9896   27.8812  -71.9102 S.3       11 UNK        -0.2615 
     17 C17       -73.3657   29.5731  -71.5949 C.3       11 UNK        -0.0865 
     18 CA        -71.9305   29.8088  -72.1390 C.3       10 UNK         0.0862 
     19 C         -70.8448   29.1739  -71.2174 C.2       10 UNK         0.5551 
     20 N         -70.0296   28.2326  -71.6791 N.am      10 UNK        -0.7319 
     21 O         -70.7324   29.5590  -70.0560 O.2       10 UNK        -0.5018 
     22 N         -71.8366   29.4468  -73.5606 N.am      10 UNK        -0.4509 
     23 C         -70.8815   29.8427  -74.4100 C.2       10 UNK         0.4899 
     24 O         -70.0293   30.6885  -74.1335 O.2       10 UNK        -0.4839 
     25 CA        -70.8780   29.1624  -75.7963 C.3       9 UNK         0.0222 
     26 CB        -69.5000   29.2259  -76.4875 C.3       9 UNK        -0.1966 
     27 N         -71.3793   27.7793  -75.7738 N.am      9 UNK        -0.4218 
     28 C         -70.8970   26.7550  -75.0505 C.2       9 UNK         0.5020 
     29 O         -69.9399   26.8492  -74.2807 O.2       9 UNK        -0.5274 
     30 CA        -71.6168   25.4026  -75.1717 C.3       8 UNK         0.0270 
     31 CB        -72.7529   25.3020  -74.1421 C.3       8 UNK        -0.1976 
     32 N         -72.1567   25.1388  -76.5048 N.am      8 UNK        -0.4313 
     33 C         -71.4221   24.8573  -77.5891 C.2       8 UNK         0.5041 
     34 O         -70.1910   24.8208  -77.5973 O.2       8 UNK        -0.5577 
     35 CA        -72.1947   24.5523  -78.8801 C.3       7 UNK         0.0284 
     36 CB        -72.7437   23.1157  -78.8572 C.3       7 UNK        -0.1958 
     37 N         -73.2969   25.4954  -79.0705 N.am      7 UNK        -0.4454 
     38 C         -73.1897   26.6549  -79.7325 C.2       7 UNK         0.5089 
     39 O         -72.1648   27.0242  -80.3067 O.2       7 UNK        -0.5125 
     40 CA        -74.4337   27.5627  -79.7719 C.3       6 UNK         0.0408 
     41 CB        -75.2249   27.3277  -81.0683 C.3       6 UNK        -0.1791 
     42 N         -75.3325   27.4064  -78.6241 N.am      6 UNK        -0.4762 
     43 C         -75.0180   27.7234  -77.3595 C.2       6 UNK         0.5007 
     44 O         -73.9098   28.1312  -77.0115 O.2       6 UNK        -0.5032 
     45 CA        -76.1124   27.4902  -76.2957 C.3       5 UNK         0.0783 
     46 C46       -77.1774   28.6168  -76.3211 C.3       11 UNK        -0.0857 
     47 S47       -76.5210   30.2377  -75.7954 S.3       11 UNK        -0.2512 
     48 C48       -77.7542   30.7710  -74.5594 C.3       11 UNK         0.0225 
     49 N         -76.7504   26.1694  -76.3874 N.am      5 UNK        -0.4615 
     50 C         -76.1486   24.9788  -76.5098 C.2       4 UNK         0.5053 
     51 O         -74.9331   24.8317  -76.6447 O.2       4 UNK        -0.5105 
     52 CA        -77.0682   23.7459  -76.4489 C.3       4 UNK         0.0263 
     53 CB        -76.3298   22.4429  -76.8087 C.3       4 UNK        -0.1981 
     54 N         -77.6654   23.6041  -75.1190 N.am      4 UNK        -0.4224 
     55 C         -78.7015   24.3185  -74.6625 C.2       3 UNK         0.4895 
     56 O         -79.2836   25.1807  -75.3265 O.2       3 UNK        -0.5091 
     57 CA        -79.1111   24.0715  -73.2023 C.3       3 UNK         0.0250 
     58 CB        -78.4503   25.1180  -72.2908 C.3       3 UNK        -0.1996 
     59 N         -80.5633   24.1371  -73.0350 N.am      3 UNK        -0.4254 
     60 C         -81.4302   23.2290  -73.5079 C.2       2 UNK         0.5004 
     61 O         -81.0873   22.1856  -74.0660 O.2       2 UNK        -0.5226 
     62 CA        -82.9334   23.5155  -73.3202 C.3       2 UNK         0.0269 
     63 CB        -83.5050   22.6688  -72.1711 C.3       2 UNK        -0.1926 
     64 N         -83.2289   24.9273  -73.0622 N.am      2 UNK        -0.4687 
     65 C         -83.1462   25.9050  -73.9763 C.2       1 UNK         0.5165 
     66 O         -82.9036   25.7090  -75.1676 O.2       1 UNK        -0.5079 
     67 H67       -87.3406   28.0754  -71.4999 H         1 UNK         0.0900 
     68 H68       -86.0188   27.5396  -70.4608 H         1 UNK         0.0900 
     69 H69       -87.0957   26.3526  -71.1995 H         1 UNK         0.0900 
     70 H70       -84.0286   27.6352  -71.4884 H         1 UNK         0.2959 
     71 H71       -83.7362   27.9154  -74.3212 H         1 UNK         0.1079 
     72 H72       -81.2569   27.8634  -73.7958 H         1 UNK         0.0837 
     73 H73       -82.1713   29.0661  -72.9354 H         1 UNK         0.0837 
     74 H74       -80.3277   28.6596  -69.7218 H         1 UNK         0.0685 
     75 H75       -81.0960   29.6933  -70.8955 H         1 UNK         0.0685 
     76 H76       -79.9360   30.2083  -73.0593 H         1 UNK         0.1434 
     77 H77       -75.7358   29.4355  -73.2651 H         1 UNK         0.1329 
     78 H78       -78.0656   27.8000  -70.0545 H         1 UNK         0.1335 
     79 H79       -75.7892   26.8187  -70.7553 H         1 UNK         0.0680 
     80 H80       -75.3532   28.3129  -69.9657 H         1 UNK         0.0680 
     81 H81       -74.0423   30.2914  -72.0576 H         1 UNK         0.1032 
     82 H82       -73.4148   29.7828  -70.5246 H         1 UNK         0.1032 
     83 H83       -71.7502   30.8840  -72.0821 H         1 UNK         0.0461 
     84 H84       -70.0974   27.8949  -72.6339 H         1 UNK         0.3453 
     85 H85       -69.3334   27.8443  -71.0636 H         1 UNK         0.3453 
     86 H86       -72.4866   28.7380  -73.8668 H         1 UNK         0.2984 
     87 H87       -71.5813   29.7267  -76.4102 H         1 UNK         0.0554 
     88 H88       -69.5277   28.7542  -77.4699 H         1 UNK         0.0847 
     89 H89       -68.7294   28.7278  -75.8982 H         1 UNK         0.0847 
     90 H90       -69.1809   30.2584  -76.6343 H         1 UNK         0.0847 
     91 H91       -72.2199   27.6269  -76.3278 H         1 UNK         0.3141 
     92 H92       -70.8861   24.6229  -74.9462 H         1 UNK         0.0743 
     93 H93       -72.3829   25.4809  -73.1315 H         1 UNK         0.0784 
     94 H94       -73.5403   26.0306  -74.3387 H         1 UNK         0.0784 
     95 H95       -73.2083   24.3115  -74.1499 H         1 UNK         0.0784 
     96 H96       -73.1727   25.0999  -76.5828 H         1 UNK         0.3213 
     97 H97       -71.4967   24.6294  -79.7169 H         1 UNK         0.0855 
     98 H98       -73.4329   22.9551  -78.0277 H         1 UNK         0.0814 
     99 H99       -71.9337   22.3929  -78.7504 H         1 UNK         0.0814 
    100 H100      -73.2702   22.8778  -79.7815 H         1 UNK         0.0814 
    101 H101      -74.1562   25.3006  -78.5712 H         1 UNK         0.3105 
    102 H102      -74.0799   28.5959  -79.7739 H         1 UNK         0.0547 
    103 H103      -75.6296   26.3161  -81.1177 H         1 UNK         0.0837 
    104 H104      -76.0550   28.0282  -81.1609 H         1 UNK         0.0837 
    105 H105      -74.5890   27.4664  -81.9439 H         1 UNK         0.0837 
    106 H106      -76.2589   27.0509  -78.8131 H         1 UNK         0.3020 
    107 H107      -75.6165   27.5148  -75.3226 H         1 UNK         0.1245 
    108 H108      -78.0051   28.3496  -75.6618 H         1 UNK         0.0781 
    109 H109      -77.6159   28.7219  -77.3152 H         1 UNK         0.0781 
    110 H110      -77.5195   31.7924  -74.2574 H         1 UNK         0.0836 
    111 H111      -78.7299   30.8116  -75.0465 H         1 UNK         0.0836 
    112 H112      -77.7530   26.1486  -76.2291 H         1 UNK         0.3022 
    113 H113      -77.8636   23.8904  -77.1834 H         1 UNK         0.0747 
    114 H114      -75.9057   22.5007  -77.8119 H         1 UNK         0.0793 
    115 H115      -77.0052   21.5873  -76.7946 H         1 UNK         0.0793 
    116 H116      -75.5105   22.2354  -76.1189 H         1 UNK         0.0793 
    117 H117      -77.2152   22.9485  -74.4962 H         1 UNK         0.3047 
    118 H118      -78.7779   23.0772  -72.8972 H         1 UNK         0.0822 
    119 H119      -77.3625   25.0576  -72.3451 H         1 UNK         0.0807 
    120 H120      -78.7322   24.9778  -71.2471 H         1 UNK         0.0807 
    121 H121      -78.7314   26.1314  -72.5808 H         1 UNK         0.0807 
    122 H122      -80.9332   24.9785  -72.6159 H         1 UNK         0.2946 
    123 H123      -83.4345   23.2236  -74.2461 H         1 UNK         0.1144 
    124 H124      -83.3310   21.6059  -72.3454 H         1 UNK         0.0793 
    125 H125      -84.5820   22.8068  -72.0739 H         1 UNK         0.0793 
    126 H126      -83.0448   22.9218  -71.2151 H         1 UNK         0.0793 
    127 H127      -83.4404   25.1865  -72.1091 H         1 UNK         0.2896 
@<TRIPOS>BOND
     1    1    2 1    
     2    1   67 1    
     3    1   68 1    
     4    1   69 1    
     5    2    3 2    
     6    2    4 am   BACKBONE|DICT|INTERRES
     7    4    5 1    
     8    4   70 1    
     9    5    6 1    
    10    5   65 1    
    11    5   71 1    
    12    6    7 1    
    13    6   72 1    
    14    6   73 1    
    15    7    8 1    
    16    8    9 1    
    17    8   74 1    
    18    8   75 1    
    19    9   10 ar   
    20    9   14 ar   
    21   10   11 ar   
    22   10   76 1    
    23   11   12 ar   
    24   11   48 1    
    25   12   13 ar   
    26   12   77 1    
    27   13   14 ar   
    28   13   15 1    
    29   14   78 1    
    30   15   16 1    
    31   15   79 1    
    32   15   80 1    
    33   16   17 1    
    34   17   18 1    
    35   17   81 1    
    36   17   82 1    
    37   18   19 1    
    38   18   22 1    
    39   18   83 1    
    40   19   20 am   BACKBONE|DICT|INTERRES
    41   19   21 2    
    42   20   84 1    
    43   20   85 1    
    44   22   23 am   BACKBONE|DICT|INTERRES
    45   22   86 1    
    46   23   24 2    
    47   23   25 1    
    48   25   26 1    
    49   25   27 1    
    50   25   87 1    
    51   26   88 1    
    52   26   89 1    
    53   26   90 1    
    54   27   28 am   BACKBONE|DICT|INTERRES
    55   27   91 1    
    56   28   29 2    
    57   28   30 1    
    58   30   31 1    
    59   30   32 1    
    60   30   92 1    
    61   31   93 1    
    62   31   94 1    
    63   31   95 1    
    64   32   33 am   BACKBONE|DICT|INTERRES
    65   32   96 1    
    66   33   34 2    
    67   33   35 1    
    68   35   36 1    
    69   35   37 1    
    70   35   97 1    
    71   36   98 1    
    72   36   99 1    
    73   36  100 1    
    74   37   38 am   BACKBONE|DICT|INTERRES
    75   37  101 1    
    76   38   39 2    
    77   38   40 1    
    78   40   41 1    
    79   40   42 1    
    80   40  102 1    
    81   41  103 1    
    82   41  104 1    
    83   41  105 1    
    84   42   43 am   BACKBONE|DICT|INTERRES
    85   42  106 1    
    86   43   44 2    
    87   43   45 1    
    88   45   46 1    
    89   45   49 1    
    90   45  107 1    
    91   46   47 1    
    92   46  108 1    
    93   46  109 1    
    94   47   48 1    
    95   48  110 1    
    96   48  111 1    
    97   49   50 am   BACKBONE|DICT|INTERRES
    98   49  112 1    
    99   50   51 2    
   100   50   52 1    
   101   52   53 1    
   102   52   54 1    
   103   52  113 1    
   104   53  114 1    
   105   53  115 1    
   106   53  116 1    
   107   54   55 am   BACKBONE|DICT|INTERRES
   108   54  117 1    
   109   55   56 2    
   110   55   57 1    
   111   57   58 1    
   112   57   59 1    
   113   57  118 1    
   114   58  119 1    
   115   58  120 1    
   116   58  121 1    
   117   59   60 am   BACKBONE|DICT|INTERRES
   118   59  122 1    
   119   60   61 2    
   120   60   62 1    
   121   62   63 1    
   122   62   64 1    
   123   62  123 1    
   124   63  124 1    
   125   63  125 1    
   126   63  126 1    
   127   64   65 am   BACKBONE|DICT|INTERRES
   128   64  127 1    
   129   65   66 2    
@<TRIPOS>SUBSTRUCTURE
     1 UNK         1 GROUP             0       ****    0 ROOT    
