@<TRIPOS>MOLECULE
3R135
127   129    1
SMALL
USER_CHARGES


@<TRIPOS>ATOM
      1 CA        -74.3643   26.0598  -70.0923 C.3       0 UNK        -0.1998 
      2 C         -75.6703   25.2895  -69.9724 C.2       0 UNK         0.4909 
      3 O         -75.6872   24.2028  -69.3941 O.2       0 UNK        -0.5240 
      4 N         -76.7650   25.8482  -70.5060 N.am      1 UNK        -0.4739 
      5 CA        -78.1163   25.2700  -70.4673 C.3       1 UNK         0.0864 
      6 C6        -79.1859   26.2872  -70.9363 C.3       11 UNK        -0.0881 
      7 S7        -79.2600   27.7400  -69.8406 S.3       11 UNK        -0.2682 
      8 C8        -80.4178   28.8165  -70.7502 C.3       11 UNK         0.0289 
      9 C9        -79.7865   29.5682  -71.9205 C.ar      11 UNK        -0.0687 
     10 C10       -80.4961   29.7088  -73.1191 C.ar      11 UNK        -0.0823 
     11 C11       -79.9787   30.4754  -74.1687 C.ar      11 UNK        -0.0830 
     12 C12       -78.7382   31.0972  -74.0167 C.ar      11 UNK        -0.1021 
     13 C13       -78.0051   30.9478  -72.8365 C.ar      11 UNK        -0.0753 
     14 C14       -78.5380   30.1895  -71.7899 C.ar      11 UNK        -0.0933 
     15 C15       -76.6578   31.6387  -72.6814 C.3       11 UNK         0.0166 
     16 S16       -75.5129   31.1853  -74.0202 S.3       11 UNK        -0.2615 
     17 C17       -74.0303   32.1519  -73.5633 C.3       11 UNK        -0.0865 
     18 CA        -72.8410   31.2828  -73.0773 C.3       10 UNK         0.0862 
     19 C         -73.0498   30.7641  -71.6268 C.2       10 UNK         0.5551 
     20 N         -72.7156   31.5739  -70.6311 N.am      10 UNK        -0.7319 
     21 O         -73.5468   29.6649  -71.3933 O.2       10 UNK        -0.5018 
     22 N         -72.5494   30.2129  -74.0377 N.am      10 UNK        -0.4509 
     23 C         -71.4106   29.5170  -74.1072 C.2       10 UNK         0.4899 
     24 O         -70.4145   29.7570  -73.4221 O.2       10 UNK        -0.4839 
     25 CA        -71.3959   28.3699  -75.1367 C.3       9 UNK         0.0222 
     26 CB        -70.1363   27.4829  -75.0398 C.3       9 UNK        -0.1966 
     27 N         -72.6160   27.5536  -75.0899 N.am      9 UNK        -0.4218 
     28 C         -73.0758   26.8390  -74.0488 C.2       9 UNK         0.5020 
     29 O         -72.5148   26.7634  -72.9559 O.2       9 UNK        -0.5274 
     30 CA        -74.3780   26.0469  -74.2701 C.3       8 UNK         0.0270 
     31 CB        -75.5962   26.8725  -73.8210 C.3       8 UNK        -0.1976 
     32 N         -74.5685   25.6121  -75.6571 N.am      8 UNK        -0.4313 
     33 C         -73.7697   24.7593  -76.3169 C.2       8 UNK         0.5041 
     34 O         -72.8032   24.1900  -75.8093 O.2       8 UNK        -0.5577 
     35 CA        -74.0913   24.5074  -77.7993 C.3       7 UNK         0.0284 
     36 CB        -74.9471   23.2399  -77.9630 C.3       7 UNK        -0.1958 
     37 N         -74.7621   25.6458  -78.4350 N.am      7 UNK        -0.4454 
     38 C         -74.1559   26.7943  -78.7716 C.2       7 UNK         0.5089 
     39 O         -72.9567   27.0122  -78.5996 O.2       7 UNK        -0.5125 
     40 CA        -75.0433   27.8953  -79.3804 C.3       6 UNK         0.0408 
     41 CB        -75.1723   27.7041  -80.8998 C.3       6 UNK        -0.1791 
     42 N         -76.3781   27.9428  -78.7775 N.am      6 UNK        -0.4762 
     43 C         -76.6282   28.3425  -77.5208 C.2       6 UNK         0.5007 
     44 O         -75.7614   28.7836  -76.7677 O.2       6 UNK        -0.5032 
     45 CA        -78.0739   28.1649  -77.0064 C.3       5 UNK         0.0783 
     46 C46       -78.9088   29.4500  -77.2279 C.3       11 UNK        -0.0857 
     47 S47       -80.6173   29.2752  -76.5977 S.3       11 UNK        -0.2512 
     48 C48       -80.7785   30.6765  -75.4479 C.3       11 UNK         0.0225 
     49 N         -78.7276   26.9874  -77.5941 N.am      5 UNK        -0.4615 
     50 C         -78.3515   25.7216  -77.3919 C.2       4 UNK         0.5053 
     51 O         -77.3670   25.3951  -76.7243 O.2       4 UNK        -0.5105 
     52 CA        -79.1798   24.6465  -78.0983 C.3       4 UNK         0.0263 
     53 CB        -78.5860   24.3116  -79.4770 C.3       4 UNK        -0.1981 
     54 N         -79.1795   23.4561  -77.2588 N.am      4 UNK        -0.4224 
     55 C         -80.2301   22.6571  -77.0411 C.2       3 UNK         0.4895 
     56 O         -81.3019   22.7609  -77.6396 O.2       3 UNK        -0.5091 
     57 CA        -80.0774   21.5532  -75.9737 C.3       3 UNK         0.0250 
     58 CB        -79.9437   20.1761  -76.6455 C.3       3 UNK        -0.1996 
     59 N         -78.9554   21.7382  -75.0435 N.am      3 UNK        -0.4254 
     60 C         -78.8183   22.7549  -74.1802 C.2       2 UNK         0.5004 
     61 O         -79.6322   23.6762  -74.0786 O.2       2 UNK        -0.5226 
     62 CA        -77.5342   22.7421  -73.3262 C.3       2 UNK         0.0269 
     63 CB        -76.2814   22.8086  -74.2171 C.3       2 UNK        -0.1926 
     64 N         -77.4849   23.8550  -72.3753 N.am      2 UNK        -0.4687 
     65 C         -78.2385   23.9588  -71.2720 C.2       1 UNK         0.5165 
     66 O         -79.0008   23.0739  -70.8780 O.2       1 UNK        -0.5079 
     67 H67       -73.9138   26.1920  -69.1092 H         1 UNK         0.0900 
     68 H68       -74.5066   27.0476  -70.5310 H         1 UNK         0.0900 
     69 H69       -73.6611   25.5106  -70.7178 H         1 UNK         0.0900 
     70 H70       -76.7013   26.7652  -70.9237 H         1 UNK         0.2959 
     71 H71       -78.3277   25.0114  -69.4270 H         1 UNK         0.1079 
     72 H72       -78.9862   26.6172  -71.9582 H         1 UNK         0.0837 
     73 H73       -80.1770   25.8283  -70.9481 H         1 UNK         0.0837 
     74 H74       -81.2674   28.2185  -71.0840 H         1 UNK         0.0685 
     75 H75       -80.8183   29.5534  -70.0531 H         1 UNK         0.0685 
     76 H76       -81.4669   29.2446  -73.2288 H         1 UNK         0.1434 
     77 H77       -78.3374   31.7041  -74.8170 H         1 UNK         0.1329 
     78 H78       -77.9885   30.0986  -70.8632 H         1 UNK         0.1335 
     79 H79       -76.1998   31.3847  -71.7240 H         1 UNK         0.0680 
     80 H80       -76.8105   32.7188  -72.6836 H         1 UNK         0.0680 
     81 H81       -74.2857   32.9131  -72.8236 H         1 UNK         0.1032 
     82 H82       -73.7232   32.7092  -74.4495 H         1 UNK         0.1032 
     83 H83       -71.9620   31.9307  -73.0567 H         1 UNK         0.0461 
     84 H84       -72.8565   31.2641  -69.6824 H         1 UNK         0.3453 
     85 H85       -72.3136   32.4817  -70.8064 H         1 UNK         0.3453 
     86 H86       -73.3343   29.9200  -74.6021 H         1 UNK         0.2984 
     87 H87       -71.3869   28.8427  -76.1199 H         1 UNK         0.0554 
     88 H88       -70.1489   26.6941  -75.7921 H         1 UNK         0.0847 
     89 H89       -70.0467   27.0108  -74.0609 H         1 UNK         0.0847 
     90 H90       -69.2315   28.0702  -75.2008 H         1 UNK         0.0847 
     91 H91       -73.1637   27.5364  -75.9400 H         1 UNK         0.3141 
     92 H92       -74.3229   25.1510  -73.6488 H         1 UNK         0.0743 
     93 H93       -75.6844   27.8013  -74.3836 H         1 UNK         0.0784 
     94 H94       -76.5275   26.3190  -73.9419 H         1 UNK         0.0784 
     95 H95       -75.5091   27.1534  -72.7721 H         1 UNK         0.0784 
     96 H96       -75.3942   25.9526  -76.1364 H         1 UNK         0.3213 
     97 H97       -73.1423   24.3419  -78.3146 H         1 UNK         0.0855 
     98 H98       -75.9115   23.3291  -77.4640 H         1 UNK         0.0814 
     99 H99       -74.4416   22.3739  -77.5335 H         1 UNK         0.0814 
    100 H100      -75.1301   23.0169  -79.0141 H         1 UNK         0.0814 
    101 H101      -75.7605   25.5723  -78.5621 H         1 UNK         0.3105 
    102 H102      -74.5541   28.8550  -79.2000 H         1 UNK         0.0547 
    103 H103      -74.1901   27.6869  -81.3743 H         1 UNK         0.0837 
    104 H104      -75.6713   26.7675  -81.1517 H         1 UNK         0.0837 
    105 H105      -75.7352   28.5185  -81.3560 H         1 UNK         0.0837 
    106 H106      -77.1490   27.6045  -79.3351 H         1 UNK         0.3020 
    107 H107      -78.0015   27.9939  -75.9292 H         1 UNK         0.1245 
    108 H108      -78.4252   30.3032  -76.7507 H         1 UNK         0.0781 
    109 H109      -78.9661   29.6928  -78.2906 H         1 UNK         0.0781 
    110 H110      -80.4797   31.5969  -75.9523 H         1 UNK         0.0836 
    111 H111      -81.8329   30.8020  -75.1975 H         1 UNK         0.0836 
    112 H112      -79.5537   27.1740  -78.1445 H         1 UNK         0.3022 
    113 H113      -80.1997   25.0183  -78.2201 H         1 UNK         0.0747 
    114 H114      -79.1803   23.5525  -79.9860 H         1 UNK         0.0793 
    115 H115      -78.5656   25.1911  -80.1216 H         1 UNK         0.0793 
    116 H116      -77.5654   23.9362  -79.3992 H         1 UNK         0.0793 
    117 H117      -78.3590   23.3547  -76.6767 H         1 UNK         0.3047 
    118 H118      -80.9954   21.5572  -75.3823 H         1 UNK         0.0822 
    119 H119      -79.9357   19.3724  -75.9089 H         1 UNK         0.0807 
    120 H120      -79.0296   20.1024  -77.2360 H         1 UNK         0.0807 
    121 H121      -80.7814   19.9855  -77.3181 H         1 UNK         0.0807 
    122 H122      -78.2399   21.0256  -75.0666 H         1 UNK         0.2946 
    123 H123      -77.5175   21.8078  -72.7600 H         1 UNK         0.1144 
    124 H124      -76.1922   21.9289  -74.8552 H         1 UNK         0.0793 
    125 H125      -75.3692   22.8603  -73.6225 H         1 UNK         0.0793 
    126 H126      -76.3096   23.6804  -74.8691 H         1 UNK         0.0793 
    127 H127      -76.8987   24.6374  -72.6206 H         1 UNK         0.2896 
@<TRIPOS>BOND
     1    1    2 1    
     2    1   67 1    
     3    1   68 1    
     4    1   69 1    
     5    2    3 2    
     6    2    4 am   BACKBONE|DICT|INTERRES
     7    4    5 1    
     8    4   70 1    
     9    5    6 1    
    10    5   65 1    
    11    5   71 1    
    12    6    7 1    
    13    6   72 1    
    14    6   73 1    
    15    7    8 1    
    16    8    9 1    
    17    8   74 1    
    18    8   75 1    
    19    9   10 ar   
    20    9   14 ar   
    21   10   11 ar   
    22   10   76 1    
    23   11   12 ar   
    24   11   48 1    
    25   12   13 ar   
    26   12   77 1    
    27   13   14 ar   
    28   13   15 1    
    29   14   78 1    
    30   15   16 1    
    31   15   79 1    
    32   15   80 1    
    33   16   17 1    
    34   17   18 1    
    35   17   81 1    
    36   17   82 1    
    37   18   19 1    
    38   18   22 1    
    39   18   83 1    
    40   19   20 am   BACKBONE|DICT|INTERRES
    41   19   21 2    
    42   20   84 1    
    43   20   85 1    
    44   22   23 am   BACKBONE|DICT|INTERRES
    45   22   86 1    
    46   23   24 2    
    47   23   25 1    
    48   25   26 1    
    49   25   27 1    
    50   25   87 1    
    51   26   88 1    
    52   26   89 1    
    53   26   90 1    
    54   27   28 am   BACKBONE|DICT|INTERRES
    55   27   91 1    
    56   28   29 2    
    57   28   30 1    
    58   30   31 1    
    59   30   32 1    
    60   30   92 1    
    61   31   93 1    
    62   31   94 1    
    63   31   95 1    
    64   32   33 am   BACKBONE|DICT|INTERRES
    65   32   96 1    
    66   33   34 2    
    67   33   35 1    
    68   35   36 1    
    69   35   37 1    
    70   35   97 1    
    71   36   98 1    
    72   36   99 1    
    73   36  100 1    
    74   37   38 am   BACKBONE|DICT|INTERRES
    75   37  101 1    
    76   38   39 2    
    77   38   40 1    
    78   40   41 1    
    79   40   42 1    
    80   40  102 1    
    81   41  103 1    
    82   41  104 1    
    83   41  105 1    
    84   42   43 am   BACKBONE|DICT|INTERRES
    85   42  106 1    
    86   43   44 2    
    87   43   45 1    
    88   45   46 1    
    89   45   49 1    
    90   45  107 1    
    91   46   47 1    
    92   46  108 1    
    93   46  109 1    
    94   47   48 1    
    95   48  110 1    
    96   48  111 1    
    97   49   50 am   BACKBONE|DICT|INTERRES
    98   49  112 1    
    99   50   51 2    
   100   50   52 1    
   101   52   53 1    
   102   52   54 1    
   103   52  113 1    
   104   53  114 1    
   105   53  115 1    
   106   53  116 1    
   107   54   55 am   BACKBONE|DICT|INTERRES
   108   54  117 1    
   109   55   56 2    
   110   55   57 1    
   111   57   58 1    
   112   57   59 1    
   113   57  118 1    
   114   58  119 1    
   115   58  120 1    
   116   58  121 1    
   117   59   60 am   BACKBONE|DICT|INTERRES
   118   59  122 1    
   119   60   61 2    
   120   60   62 1    
   121   62   63 1    
   122   62   64 1    
   123   62  123 1    
   124   63  124 1    
   125   63  125 1    
   126   63  126 1    
   127   64   65 am   BACKBONE|DICT|INTERRES
   128   64  127 1    
   129   65   66 2    
@<TRIPOS>SUBSTRUCTURE
     1 UNK         1 GROUP             0       ****    0 ROOT    
