@<TRIPOS>MOLECULE
3R135
127   129    1
SMALL
USER_CHARGES


@<TRIPOS>ATOM
      1 CA        -84.3858   26.4924  -70.3635 C.3       0 UNK        -0.1998 
      2 C         -83.3169   26.6371  -71.4358 C.2       0 UNK         0.4909 
      3 O         -82.2182   26.1035  -71.2779 O.2       0 UNK        -0.5240 
      4 N         -83.6341   27.3459  -72.5293 N.am      1 UNK        -0.4739 
      5 CA        -82.7858   27.6292  -73.6997 C.3       1 UNK         0.0864 
      6 C6        -81.4349   28.2989  -73.3313 C.3       11 UNK        -0.0881 
      7 S7        -80.8464   29.4728  -74.5969 S.3       11 UNK        -0.2682 
      8 C8        -79.8262   30.5965  -73.5873 C.3       11 UNK         0.0289 
      9 C9        -78.4986   29.9595  -73.2004 C.ar      11 UNK        -0.0687 
     10 C10       -78.4263   29.0763  -72.1191 C.ar      11 UNK        -0.0823 
     11 C11       -77.2189   28.4620  -71.7773 C.ar      11 UNK        -0.0830 
     12 C12       -76.0649   28.7723  -72.5040 C.ar      11 UNK        -0.1021 
     13 C13       -76.1196   29.6630  -73.5806 C.ar      11 UNK        -0.0753 
     14 C14       -77.3398   30.2520  -73.9248 C.ar      11 UNK        -0.0933 
     15 C15       -74.8753   29.9567  -74.4049 C.3       11 UNK         0.0166 
     16 S16       -74.0332   31.4711  -73.8451 S.3       11 UNK        -0.2615 
     17 C17       -73.0720   30.8519  -72.4208 C.3       11 UNK        -0.0865 
     18 CA        -71.5370   30.9935  -72.6044 C.3       10 UNK         0.0862 
     19 C         -70.8004   30.5093  -71.3196 C.2       10 UNK         0.5551 
     20 N         -70.0549   29.4113  -71.3520 N.am      10 UNK        -0.7319 
     21 O         -70.9122   31.1447  -70.2741 O.2       10 UNK        -0.5018 
     22 N         -71.0740   30.3869  -73.8660 N.am      10 UNK        -0.4509 
     23 C         -69.8600   30.5387  -74.4104 C.2       10 UNK         0.4899 
     24 O         -68.9719   31.2270  -73.9051 O.2       10 UNK        -0.4839 
     25 CA        -69.5909   29.7897  -75.7350 C.3       9 UNK         0.0222 
     26 CB        -68.0954   29.7648  -76.1053 C.3       9 UNK        -0.1966 
     27 N         -70.0988   28.4122  -75.7198 N.am      9 UNK        -0.4218 
     28 C         -71.3712   28.0581  -75.9376 C.2       9 UNK         0.5020 
     29 O         -72.2686   28.8701  -76.1691 O.2       9 UNK        -0.5274 
     30 CA        -71.6984   26.5641  -75.7906 C.3       8 UNK         0.0270 
     31 CB        -71.8758   26.2039  -74.3052 C.3       8 UNK        -0.1976 
     32 N         -72.9143   26.2067  -76.5269 N.am      8 UNK        -0.4313 
     33 C         -72.9599   26.0395  -77.8573 C.2       8 UNK         0.5041 
     34 O         -71.9651   26.1248  -78.5807 O.2       8 UNK        -0.5577 
     35 CA        -74.3113   25.6878  -78.5123 C.3       7 UNK         0.0284 
     36 CB        -74.3286   24.2087  -78.9334 C.3       7 UNK        -0.1958 
     37 N         -75.4794   25.9574  -77.6714 N.am      7 UNK        -0.4454 
     38 C         -75.9521   27.1789  -77.3887 C.2       7 UNK         0.5089 
     39 O         -75.5026   28.2146  -77.8792 O.2       7 UNK        -0.5125 
     40 CA        -77.1127   27.2711  -76.3792 C.3       6 UNK         0.0408 
     41 CB        -78.4592   27.3825  -77.1080 C.3       6 UNK        -0.1791 
     42 N         -77.1741   26.1770  -75.4024 N.am      6 UNK        -0.4762 
     43 C         -76.1997   25.8628  -74.5337 C.2       6 UNK         0.5007 
     44 O         -75.0888   26.3906  -74.5369 O.2       6 UNK        -0.5032 
     45 CA        -76.4917   24.7336  -73.5323 C.3       5 UNK         0.0783 
     46 C46       -77.3705   25.2054  -72.3436 C.3       11 UNK        -0.0857 
     47 S47       -76.3433   25.9038  -71.0038 S.3       11 UNK        -0.2512 
     48 C48       -77.1769   27.4790  -70.6121 C.3       11 UNK         0.0225 
     49 N         -77.0667   23.5868  -74.2361 N.am      5 UNK        -0.4615 
     50 C         -76.3372   22.5860  -74.7504 C.2       4 UNK         0.5053 
     51 O         -75.1204   22.4764  -74.5986 O.2       4 UNK        -0.5105 
     52 CA        -77.0757   21.5242  -75.5856 C.3       4 UNK         0.0263 
     53 CB        -77.4849   20.3357  -74.7007 C.3       4 UNK        -0.1981 
     54 N         -78.2573   22.0358  -76.2820 N.am      4 UNK        -0.4224 
     55 C         -78.2428   22.9878  -77.2258 C.2       3 UNK         0.4895 
     56 O         -77.2204   23.5307  -77.6418 O.2       3 UNK        -0.5091 
     57 CA        -79.6099   23.4468  -77.7587 C.3       3 UNK         0.0250 
     58 CB        -80.0409   22.5747  -78.9486 C.3       3 UNK        -0.1996 
     59 N         -80.6758   23.4602  -76.7488 N.am      3 UNK        -0.4254 
     60 C         -80.6412   24.1288  -75.5868 C.2       2 UNK         0.5004 
     61 O         -79.6643   24.7658  -75.1812 O.2       2 UNK        -0.5226 
     62 CA        -81.8882   24.0096  -74.6989 C.3       2 UNK         0.0269 
     63 CB        -81.6854   22.9085  -73.6456 C.3       2 UNK        -0.1926 
     64 N         -82.1832   25.2682  -74.0174 N.am      2 UNK        -0.4687 
     65 C         -82.5883   26.3982  -74.6104 C.2       1 UNK         0.5165 
     66 O         -82.8387   26.4832  -75.8140 O.2       1 UNK        -0.5079 
     67 H67       -84.0266   26.9017  -69.4196 H         1 UNK         0.0900 
     68 H68       -85.3057   27.0122  -70.6304 H         1 UNK         0.0900 
     69 H69       -84.6226   25.4398  -70.2104 H         1 UNK         0.0900 
     70 H70       -84.5688   27.7263  -72.5948 H         1 UNK         0.2959 
     71 H71       -83.3661   28.3471  -74.2824 H         1 UNK         0.1079 
     72 H72       -80.6579   27.5564  -73.1373 H         1 UNK         0.0837 
     73 H73       -81.5539   28.8564  -72.4013 H         1 UNK         0.0837 
     74 H74       -79.6496   31.5097  -74.1577 H         1 UNK         0.0685 
     75 H75       -80.3741   30.9016  -72.6946 H         1 UNK         0.0685 
     76 H76       -79.3171   28.8561  -71.5484 H         1 UNK         0.1434 
     77 H77       -75.1292   28.2949  -72.2490 H         1 UNK         0.1329 
     78 H78       -77.3871   30.9310  -74.7651 H         1 UNK         0.1335 
     79 H79       -75.1495   30.0745  -75.4545 H         1 UNK         0.0680 
     80 H80       -74.1899   29.1089  -74.3707 H         1 UNK         0.0680 
     81 H81       -73.3281   29.8100  -72.2256 H         1 UNK         0.1032 
     82 H82       -73.4011   31.4073  -71.5403 H         1 UNK         0.1032 
     83 H83       -71.3196   32.0604  -72.6839 H         1 UNK         0.0461 
     84 H84       -69.9499   28.8926  -72.2082 H         1 UNK         0.3453 
     85 H85       -69.5816   29.1097  -70.5150 H         1 UNK         0.3453 
     86 H86       -71.7596   29.8548  -74.3890 H         1 UNK         0.2984 
     87 H87       -70.1109   30.3444  -76.5189 H         1 UNK         0.0554 
     88 H88       -67.6983   30.7761  -76.2040 H         1 UNK         0.0847 
     89 H89       -67.9302   29.2634  -77.0591 H         1 UNK         0.0847 
     90 H90       -67.4997   29.2532  -75.3482 H         1 UNK         0.0847 
     91 H91       -69.4290   27.6908  -75.4921 H         1 UNK         0.3141 
     92 H92       -70.8667   25.9804  -76.1914 H         1 UNK         0.0743 
     93 H93       -72.6158   26.8412  -73.8194 H         1 UNK         0.0784 
     94 H94       -72.1932   25.1683  -74.1806 H         1 UNK         0.0784 
     95 H95       -70.9400   26.3234  -73.7580 H         1 UNK         0.0784 
     96 H96       -73.7787   26.2013  -75.9919 H         1 UNK         0.3213 
     97 H97       -74.3968   26.2972  -79.4145 H         1 UNK         0.0855 
     98 H98       -74.2926   23.5441  -78.0690 H         1 UNK         0.0814 
     99 H99       -73.4736   23.9691  -79.5671 H         1 UNK         0.0814 
    100 H100      -75.2271   23.9697  -79.5024 H         1 UNK         0.0814 
    101 H101      -75.9660   25.1514  -77.2919 H         1 UNK         0.3105 
    102 H102      -76.9683   28.1897  -75.8119 H         1 UNK         0.0547 
    103 H103      -78.6382   26.5219  -77.7498 H         1 UNK         0.0837 
    104 H104      -78.4857   28.2707  -77.7403 H         1 UNK         0.0837 
    105 H105      -79.2896   27.4595  -76.4056 H         1 UNK         0.0837 
    106 H106      -78.0603   25.6792  -75.3390 H         1 UNK         0.3020 
    107 H107      -75.5251   24.4263  -73.1249 H         1 UNK         0.1245 
    108 H108      -77.9072   24.3580  -71.9143 H         1 UNK         0.0781 
    109 H109      -78.1415   25.9119  -72.6589 H         1 UNK         0.0781 
    110 H110      -76.6558   27.9514  -69.7785 H         1 UNK         0.0836 
    111 H111      -78.1838   27.2546  -70.2560 H         1 UNK         0.0836 
    112 H112      -78.0530   23.6473  -74.4600 H         1 UNK         0.3022 
    113 H113      -76.3774   21.1636  -76.3440 H         1 UNK         0.0747 
    114 H114      -77.9279   19.5338  -75.2915 H         1 UNK         0.0793 
    115 H115      -76.6188   19.9158  -74.1868 H         1 UNK         0.0793 
    116 H116      -78.2058   20.6299  -73.9366 H         1 UNK         0.0793 
    117 H117      -79.1499   21.6539  -76.0062 H         1 UNK         0.3047 
    118 H118      -79.4930   24.4688  -78.1190 H         1 UNK         0.0822 
    119 H119      -80.9539   22.9529  -79.4089 H         1 UNK         0.0807 
    120 H120      -80.2174   21.5403  -78.6507 H         1 UNK         0.0807 
    121 H121      -79.2720   22.5640  -79.7228 H         1 UNK         0.0807 
    122 H122      -81.5146   22.9491  -76.9848 H         1 UNK         0.2946 
    123 H123      -82.7484   23.7534  -75.3216 H         1 UNK         0.1144 
    124 H124      -81.4912   21.9439  -74.1164 H         1 UNK         0.0793 
    125 H125      -82.5709   22.7902  -73.0206 H         1 UNK         0.0793 
    126 H126      -80.8412   23.1289  -72.9904 H         1 UNK         0.0793 
    127 H127      -82.0032   25.3117  -73.0182 H         1 UNK         0.2896 
@<TRIPOS>BOND
     1    1    2 1    
     2    1   67 1    
     3    1   68 1    
     4    1   69 1    
     5    2    3 2    
     6    2    4 am   BACKBONE|DICT|INTERRES
     7    4    5 1    
     8    4   70 1    
     9    5    6 1    
    10    5   65 1    
    11    5   71 1    
    12    6    7 1    
    13    6   72 1    
    14    6   73 1    
    15    7    8 1    
    16    8    9 1    
    17    8   74 1    
    18    8   75 1    
    19    9   10 ar   
    20    9   14 ar   
    21   10   11 ar   
    22   10   76 1    
    23   11   12 ar   
    24   11   48 1    
    25   12   13 ar   
    26   12   77 1    
    27   13   14 ar   
    28   13   15 1    
    29   14   78 1    
    30   15   16 1    
    31   15   79 1    
    32   15   80 1    
    33   16   17 1    
    34   17   18 1    
    35   17   81 1    
    36   17   82 1    
    37   18   19 1    
    38   18   22 1    
    39   18   83 1    
    40   19   20 am   BACKBONE|DICT|INTERRES
    41   19   21 2    
    42   20   84 1    
    43   20   85 1    
    44   22   23 am   BACKBONE|DICT|INTERRES
    45   22   86 1    
    46   23   24 2    
    47   23   25 1    
    48   25   26 1    
    49   25   27 1    
    50   25   87 1    
    51   26   88 1    
    52   26   89 1    
    53   26   90 1    
    54   27   28 am   BACKBONE|DICT|INTERRES
    55   27   91 1    
    56   28   29 2    
    57   28   30 1    
    58   30   31 1    
    59   30   32 1    
    60   30   92 1    
    61   31   93 1    
    62   31   94 1    
    63   31   95 1    
    64   32   33 am   BACKBONE|DICT|INTERRES
    65   32   96 1    
    66   33   34 2    
    67   33   35 1    
    68   35   36 1    
    69   35   37 1    
    70   35   97 1    
    71   36   98 1    
    72   36   99 1    
    73   36  100 1    
    74   37   38 am   BACKBONE|DICT|INTERRES
    75   37  101 1    
    76   38   39 2    
    77   38   40 1    
    78   40   41 1    
    79   40   42 1    
    80   40  102 1    
    81   41  103 1    
    82   41  104 1    
    83   41  105 1    
    84   42   43 am   BACKBONE|DICT|INTERRES
    85   42  106 1    
    86   43   44 2    
    87   43   45 1    
    88   45   46 1    
    89   45   49 1    
    90   45  107 1    
    91   46   47 1    
    92   46  108 1    
    93   46  109 1    
    94   47   48 1    
    95   48  110 1    
    96   48  111 1    
    97   49   50 am   BACKBONE|DICT|INTERRES
    98   49  112 1    
    99   50   51 2    
   100   50   52 1    
   101   52   53 1    
   102   52   54 1    
   103   52  113 1    
   104   53  114 1    
   105   53  115 1    
   106   53  116 1    
   107   54   55 am   BACKBONE|DICT|INTERRES
   108   54  117 1    
   109   55   56 2    
   110   55   57 1    
   111   57   58 1    
   112   57   59 1    
   113   57  118 1    
   114   58  119 1    
   115   58  120 1    
   116   58  121 1    
   117   59   60 am   BACKBONE|DICT|INTERRES
   118   59  122 1    
   119   60   61 2    
   120   60   62 1    
   121   62   63 1    
   122   62   64 1    
   123   62  123 1    
   124   63  124 1    
   125   63  125 1    
   126   63  126 1    
   127   64   65 am   BACKBONE|DICT|INTERRES
   128   64  127 1    
   129   65   66 2    
@<TRIPOS>SUBSTRUCTURE
     1 UNK         1 GROUP             0       ****    0 ROOT    
