@<TRIPOS>MOLECULE
3R135
127   129    1
SMALL
USER_CHARGES


@<TRIPOS>ATOM
      1 CA        -83.0494   27.3449  -73.9290 C.3       0 UNK        -0.1998 
      2 C         -82.0724   27.5868  -75.0691 C.2       0 UNK         0.4909 
      3 O         -82.4928   27.8854  -76.1873 O.2       0 UNK        -0.5240 
      4 N         -80.7688   27.4380  -74.8046 N.am      1 UNK        -0.4739 
      5 CA        -79.6694   27.6560  -75.7541 C.3       1 UNK         0.0864 
      6 C6        -78.3521   28.0144  -75.0176 C.3       11 UNK        -0.0881 
      7 S7        -78.4359   29.6460  -74.2051 S.3       11 UNK        -0.2682 
      8 C8        -78.8233   29.2122  -72.4790 C.3       11 UNK         0.0289 
      9 C9        -77.6544   28.5437  -71.7694 C.ar      11 UNK        -0.0687 
     10 C10       -77.6743   27.1697  -71.5100 C.ar      11 UNK        -0.0823 
     11 C11       -76.6182   26.5600  -70.8254 C.ar      11 UNK        -0.0830 
     12 C12       -75.5386   27.3384  -70.3941 C.ar      11 UNK        -0.1021 
     13 C13       -75.4993   28.7092  -70.6643 C.ar      11 UNK        -0.0753 
     14 C14       -76.5618   29.3071  -71.3485 C.ar      11 UNK        -0.0933 
     15 C15       -74.3099   29.5447  -70.2203 C.3       11 UNK         0.0166 
     16 S16       -72.9264   29.3767  -71.3880 S.3       11 UNK        -0.2615 
     17 C17       -71.8821   30.7888  -70.8901 C.3       11 UNK        -0.0865 
     18 CA        -72.0969   32.0334  -71.8063 C.3       10 UNK         0.0862 
     19 C         -71.3531   33.3182  -71.3198 C.2       10 UNK         0.5551 
     20 N         -71.2019   33.5206  -70.0143 N.am      10 UNK        -0.7319 
     21 O         -70.9577   34.1734  -72.1147 O.2       10 UNK        -0.5018 
     22 N         -71.8694   31.7303  -73.2323 N.am      10 UNK        -0.4509 
     23 C         -70.6972   31.4174  -73.7996 C.2       10 UNK         0.4899 
     24 O         -69.6338   31.3036  -73.1839 O.2       10 UNK        -0.4839 
     25 CA        -70.7363   31.1445  -75.3137 C.3       9 UNK         0.0222 
     26 CB        -69.3707   31.3885  -75.9877 C.3       9 UNK        -0.1966 
     27 N         -71.1524   29.7645  -75.5621 N.am      9 UNK        -0.4218 
     28 C         -72.4191   29.3297  -75.5542 C.2       9 UNK         0.5020 
     29 O         -73.3983   30.0593  -75.3716 O.2       9 UNK        -0.5274 
     30 CA        -72.6099   27.8154  -75.7550 C.3       8 UNK         0.0270 
     31 CB        -72.5715   27.0841  -74.4041 C.3       8 UNK        -0.1976 
     32 N         -73.8661   27.4961  -76.4360 N.am      8 UNK        -0.4313 
     33 C         -74.1427   27.7980  -77.7110 C.2       8 UNK         0.5041 
     34 O         -73.3372   28.3307  -78.4789 O.2       8 UNK        -0.5577 
     35 CA        -75.5574   27.4294  -78.2012 C.3       7 UNK         0.0284 
     36 CB        -75.7517   27.6522  -79.7167 C.3       7 UNK        -0.1958 
     37 N         -75.9614   26.0682  -77.8234 N.am      7 UNK        -0.4454 
     38 C         -75.3694   24.9154  -78.1646 C.2       7 UNK         0.5089 
     39 O         -74.3418   24.8321  -78.8404 O.2       7 UNK        -0.5125 
     40 CA        -76.0744   23.6418  -77.6593 C.3       6 UNK         0.0408 
     41 CB        -75.4466   22.3452  -78.2143 C.3       6 UNK        -0.1791 
     42 N         -76.1726   23.5834  -76.1949 N.am      6 UNK        -0.4762 
     43 C         -75.1666   23.5680  -75.3058 C.2       6 UNK         0.5007 
     44 O         -73.9813   23.6800  -75.6208 O.2       6 UNK        -0.5032 
     45 CA        -75.5067   23.3239  -73.8166 C.3       5 UNK         0.0783 
     46 C46       -75.1955   24.5701  -72.9472 C.3       11 UNK        -0.0857 
     47 S47       -75.1776   24.1857  -71.1627 S.3       11 UNK        -0.2512 
     48 C48       -76.6555   25.0612  -70.5511 C.3       11 UNK         0.0225 
     49 N         -76.8380   22.7354  -73.5847 N.am      5 UNK        -0.4615 
     50 C         -78.0290   23.3383  -73.6703 C.2       4 UNK         0.5053 
     51 O         -78.1918   24.5238  -73.9576 O.2       4 UNK        -0.5105 
     52 CA        -79.2535   22.4675  -73.3883 C.3       4 UNK         0.0263 
     53 CB        -79.6644   22.5619  -71.9077 C.3       4 UNK        -0.1981 
     54 N         -80.3393   22.9295  -74.2458 N.am      4 UNK        -0.4224 
     55 C         -81.3936   22.2000  -74.6270 C.2       3 UNK         0.4895 
     56 O         -81.5848   21.0358  -74.2727 O.2       3 UNK        -0.5091 
     57 CA        -82.4206   22.8777  -75.5504 C.3       3 UNK         0.0250 
     58 CB        -83.5620   23.4842  -74.7176 C.3       3 UNK        -0.1996 
     59 N         -81.8497   23.9175  -76.4114 N.am      3 UNK        -0.4254 
     60 C         -81.0682   23.6905  -77.4782 C.2       2 UNK         0.5004 
     61 O         -80.7048   22.5704  -77.8369 O.2       2 UNK        -0.5226 
     62 CA        -80.6295   24.9216  -78.2903 C.3       2 UNK         0.0269 
     63 CB        -81.6003   25.1705  -79.4556 C.3       2 UNK        -0.1926 
     64 N         -80.5503   26.1285  -77.4630 N.am      2 UNK        -0.4687 
     65 C         -79.5080   26.4330  -76.6814 C.2       1 UNK         0.5165 
     66 O         -78.4682   25.7745  -76.6677 O.2       1 UNK        -0.5079 
     67 H67       -83.4912   28.2887  -73.6105 H         1 UNK         0.0900 
     68 H68       -83.8550   26.6872  -74.2541 H         1 UNK         0.0900 
     69 H69       -82.5648   26.8870  -73.0670 H         1 UNK         0.0900 
     70 H70       -80.4831   27.1501  -73.8808 H         1 UNK         0.2959 
     71 H71       -79.9262   28.4986  -76.4006 H         1 UNK         0.1079 
     72 H72       -77.5212   28.0656  -75.7219 H         1 UNK         0.0837 
     73 H73       -78.0809   27.2397  -74.2991 H         1 UNK         0.0837 
     74 H74       -79.7113   28.5802  -72.4471 H         1 UNK         0.0685 
     75 H75       -79.0879   30.1258  -71.9441 H         1 UNK         0.0685 
     76 H76       -78.5127   26.5727  -71.8430 H         1 UNK         0.1434 
     77 H77       -74.7170   26.8729  -69.8664 H         1 UNK         0.1329 
     78 H78       -76.5396   30.3681  -71.5580 H         1 UNK         0.1335 
     79 H79       -73.9857   29.2375  -69.2245 H         1 UNK         0.0680 
     80 H80       -74.5978   30.5949  -70.1441 H         1 UNK         0.0680 
     81 H81       -72.0979   31.0203  -69.8461 H         1 UNK         0.1032 
     82 H82       -70.8377   30.4724  -70.9139 H         1 UNK         0.1032 
     83 H83       -73.1537   32.2989  -71.7462 H         1 UNK         0.0461 
     84 H84       -70.7399   34.3621  -69.7050 H         1 UNK         0.3453 
     85 H85       -71.5415   32.8599  -69.3307 H         1 UNK         0.3453 
     86 H86       -72.6924   31.7426  -73.8219 H         1 UNK         0.2984 
     87 H87       -71.4574   31.8292  -75.7694 H         1 UNK         0.0554 
     88 H88       -69.0254   32.4077  -75.8075 H         1 UNK         0.0847 
     89 H89       -69.4318   31.2559  -77.0689 H         1 UNK         0.0847 
     90 H90       -68.6007   30.7122  -75.6097 H         1 UNK         0.0847 
     91 H91       -70.4101   29.0887  -75.6770 H         1 UNK         0.3141 
     92 H92       -71.7915   27.4417  -76.3746 H         1 UNK         0.0743 
     93 H93       -73.4190   27.3571  -73.7728 H         1 UNK         0.0784 
     94 H94       -72.5833   26.0031  -74.5446 H         1 UNK         0.0784 
     95 H95       -71.6637   27.3260  -73.8488 H         1 UNK         0.0784 
     96 H96       -74.5893   27.0683  -75.8779 H         1 UNK         0.3213 
     97 H97       -76.2389   28.1092  -77.6885 H         1 UNK         0.0855 
     98 H98       -75.0740   27.0347  -80.3078 H         1 UNK         0.0814 
     99 H99       -75.5610   28.6921  -79.9855 H         1 UNK         0.0814 
    100 H100      -76.7719   27.4211  -80.0244 H         1 UNK         0.0814 
    101 H101      -76.8233   25.9913  -77.2813 H         1 UNK         0.3105 
    102 H102      -77.0992   23.6888  -78.0315 H         1 UNK         0.0547 
    103 H103      -76.0001   21.4650  -77.8879 H         1 UNK         0.0837 
    104 H104      -74.4096   22.2262  -77.8986 H         1 UNK         0.0837 
    105 H105      -75.4543   22.3457  -79.3050 H         1 UNK         0.0837 
    106 H106      -77.1133   23.6007  -75.8214 H         1 UNK         0.3020 
    107 H107      -74.8047   22.5461  -73.5097 H         1 UNK         0.1245 
    108 H108      -75.8854   25.3858  -73.1650 H         1 UNK         0.0781 
    109 H109      -74.2030   24.9557  -73.1807 H         1 UNK         0.0781 
    110 H110      -76.7380   24.9021  -69.4753 H         1 UNK         0.0836 
    111 H111      -77.5407   24.6063  -70.9961 H         1 UNK         0.0836 
    112 H112      -76.8239   21.7532  -73.3475 H         1 UNK         0.3022 
    113 H113      -79.0155   21.4312  -73.6384 H         1 UNK         0.0747 
    114 H114      -80.5217   21.9242  -71.6913 H         1 UNK         0.0793 
    115 H115      -78.8513   22.2431  -71.2542 H         1 UNK         0.0793 
    116 H116      -79.9285   23.5828  -71.6286 H         1 UNK         0.0793 
    117 H117      -80.2151   23.8672  -74.6064 H         1 UNK         0.3047 
    118 H118      -82.8431   22.1026  -76.1939 H         1 UNK         0.0822 
    119 H119      -84.3276   23.9299  -75.3531 H         1 UNK         0.0807 
    120 H120      -83.1993   24.2523  -74.0339 H         1 UNK         0.0807 
    121 H121      -84.0510   22.7185  -74.1135 H         1 UNK         0.0807 
    122 H122      -82.1026   24.8720  -76.2052 H         1 UNK         0.2946 
    123 H123      -79.6429   24.7059  -78.7080 H         1 UNK         0.1144 
    124 H124      -81.2671   26.0019  -80.0772 H         1 UNK         0.0793 
    125 H125      -82.6074   25.3975  -79.1031 H         1 UNK         0.0793 
    126 H126      -81.6696   24.2929  -80.1001 H         1 UNK         0.0793 
    127 H127      -81.3757   26.7176  -77.4015 H         1 UNK         0.2896 
@<TRIPOS>BOND
     1    1    2 1    
     2    1   67 1    
     3    1   68 1    
     4    1   69 1    
     5    2    3 2    
     6    2    4 am   BACKBONE|DICT|INTERRES
     7    4    5 1    
     8    4   70 1    
     9    5    6 1    
    10    5   65 1    
    11    5   71 1    
    12    6    7 1    
    13    6   72 1    
    14    6   73 1    
    15    7    8 1    
    16    8    9 1    
    17    8   74 1    
    18    8   75 1    
    19    9   10 ar   
    20    9   14 ar   
    21   10   11 ar   
    22   10   76 1    
    23   11   12 ar   
    24   11   48 1    
    25   12   13 ar   
    26   12   77 1    
    27   13   14 ar   
    28   13   15 1    
    29   14   78 1    
    30   15   16 1    
    31   15   79 1    
    32   15   80 1    
    33   16   17 1    
    34   17   18 1    
    35   17   81 1    
    36   17   82 1    
    37   18   19 1    
    38   18   22 1    
    39   18   83 1    
    40   19   20 am   BACKBONE|DICT|INTERRES
    41   19   21 2    
    42   20   84 1    
    43   20   85 1    
    44   22   23 am   BACKBONE|DICT|INTERRES
    45   22   86 1    
    46   23   24 2    
    47   23   25 1    
    48   25   26 1    
    49   25   27 1    
    50   25   87 1    
    51   26   88 1    
    52   26   89 1    
    53   26   90 1    
    54   27   28 am   BACKBONE|DICT|INTERRES
    55   27   91 1    
    56   28   29 2    
    57   28   30 1    
    58   30   31 1    
    59   30   32 1    
    60   30   92 1    
    61   31   93 1    
    62   31   94 1    
    63   31   95 1    
    64   32   33 am   BACKBONE|DICT|INTERRES
    65   32   96 1    
    66   33   34 2    
    67   33   35 1    
    68   35   36 1    
    69   35   37 1    
    70   35   97 1    
    71   36   98 1    
    72   36   99 1    
    73   36  100 1    
    74   37   38 am   BACKBONE|DICT|INTERRES
    75   37  101 1    
    76   38   39 2    
    77   38   40 1    
    78   40   41 1    
    79   40   42 1    
    80   40  102 1    
    81   41  103 1    
    82   41  104 1    
    83   41  105 1    
    84   42   43 am   BACKBONE|DICT|INTERRES
    85   42  106 1    
    86   43   44 2    
    87   43   45 1    
    88   45   46 1    
    89   45   49 1    
    90   45  107 1    
    91   46   47 1    
    92   46  108 1    
    93   46  109 1    
    94   47   48 1    
    95   48  110 1    
    96   48  111 1    
    97   49   50 am   BACKBONE|DICT|INTERRES
    98   49  112 1    
    99   50   51 2    
   100   50   52 1    
   101   52   53 1    
   102   52   54 1    
   103   52  113 1    
   104   53  114 1    
   105   53  115 1    
   106   53  116 1    
   107   54   55 am   BACKBONE|DICT|INTERRES
   108   54  117 1    
   109   55   56 2    
   110   55   57 1    
   111   57   58 1    
   112   57   59 1    
   113   57  118 1    
   114   58  119 1    
   115   58  120 1    
   116   58  121 1    
   117   59   60 am   BACKBONE|DICT|INTERRES
   118   59  122 1    
   119   60   61 2    
   120   60   62 1    
   121   62   63 1    
   122   62   64 1    
   123   62  123 1    
   124   63  124 1    
   125   63  125 1    
   126   63  126 1    
   127   64   65 am   BACKBONE|DICT|INTERRES
   128   64  127 1    
   129   65   66 2    
@<TRIPOS>SUBSTRUCTURE
     1 UNK         1 GROUP             0       ****    0 ROOT    
