@<TRIPOS>MOLECULE
3R135
127   129    1
SMALL
USER_CHARGES


@<TRIPOS>ATOM
      1 CA        -84.1820   29.1572  -72.5676 C.3       0 UNK        -0.1998 
      2 C         -83.5993   28.5694  -73.8440 C.2       0 UNK         0.4909 
      3 O         -84.3305   28.3648  -74.8134 O.2       0 UNK        -0.5240 
      4 N         -82.2872   28.2995  -73.8512 N.am      1 UNK        -0.4739 
      5 CA        -81.5560   27.7213  -74.9882 C.3       1 UNK         0.0864 
      6 C6        -80.0241   27.8717  -74.8326 C.3       11 UNK        -0.0881 
      7 S7        -79.4876   29.6147  -74.7518 S.3       11 UNK        -0.2682 
      8 C8        -79.2296   29.8674  -72.9653 C.3       11 UNK         0.0289 
      9 C9        -77.9409   29.2254  -72.4731 C.ar      11 UNK        -0.0687 
     10 C10       -77.9594   27.9615  -71.8769 C.ar      11 UNK        -0.0823 
     11 C11       -76.7764   27.3724  -71.4218 C.ar      11 UNK        -0.0830 
     12 C12       -75.5667   28.0637  -71.5554 C.ar      11 UNK        -0.1021 
     13 C13       -75.5374   29.3384  -72.1314 C.ar      11 UNK        -0.0753 
     14 C14       -76.7291   29.9119  -72.5874 C.ar      11 UNK        -0.0933 
     15 C15       -74.2315   30.1173  -72.2258 C.3       11 UNK         0.0166 
     16 S16       -73.8101   30.5302  -73.9460 S.3       11 UNK        -0.2615 
     17 C17       -72.4682   31.7452  -73.7100 C.3       11 UNK        -0.0865 
     18 CA        -71.2098   31.4334  -74.5721 C.3       10 UNK         0.0862 
     19 C         -70.1967   32.6199  -74.6136 C.2       10 UNK         0.5551 
     20 N         -68.8993   32.3743  -74.7525 N.am      10 UNK        -0.7319 
     21 O         -70.5896   33.7827  -74.5533 O.2       10 UNK        -0.5018 
     22 N         -70.6078   30.1211  -74.2704 N.am      10 UNK        -0.4509 
     23 C         -70.0338   29.7545  -73.1135 C.2       10 UNK         0.4899 
     24 O         -69.9477   30.4864  -72.1263 O.2       10 UNK        -0.4839 
     25 CA        -69.4315   28.3340  -73.0684 C.3       9 UNK         0.0222 
     26 CB        -69.2048   27.8127  -71.6324 C.3       9 UNK        -0.1966 
     27 N         -70.1950   27.3784  -73.8802 N.am      9 UNK        -0.4218 
     28 C         -71.4589   26.9793  -73.6788 C.2       9 UNK         0.5020 
     29 O         -72.1261   27.2449  -72.6779 O.2       9 UNK        -0.5274 
     30 CA        -72.0965   26.1921  -74.8337 C.3       8 UNK         0.0270 
     31 CB        -72.9072   24.9881  -74.3261 C.3       8 UNK        -0.1976 
     32 N         -72.9510   27.0783  -75.6299 N.am      8 UNK        -0.4313 
     33 C         -72.4859   28.0310  -76.4546 C.2       8 UNK         0.5041 
     34 O         -71.2807   28.2373  -76.6200 O.2       8 UNK        -0.5577 
     35 CA        -73.4905   28.9412  -77.1936 C.3       7 UNK         0.0284 
     36 CB        -73.1115   29.1410  -78.6770 C.3       7 UNK        -0.1958 
     37 N         -74.8993   28.5572  -77.0397 N.am      7 UNK        -0.4454 
     38 C         -75.5234   27.4925  -77.5604 C.2       7 UNK         0.5089 
     39 O         -74.9989   26.6660  -78.3088 O.2       7 UNK        -0.5125 
     40 CA        -76.9886   27.3004  -77.1273 C.3       6 UNK         0.0408 
     41 CB        -77.9224   27.2340  -78.3475 C.3       6 UNK        -0.1791 
     42 N         -77.1593   26.0911  -76.3180 N.am      6 UNK        -0.4762 
     43 C         -76.4995   25.8211  -75.1805 C.2       6 UNK         0.5007 
     44 O         -75.7101   26.6108  -74.6653 O.2       6 UNK        -0.5032 
     45 CA        -76.7257   24.4382  -74.5272 C.3       5 UNK         0.0783 
     46 C46       -77.3914   24.5384  -73.1286 C.3       11 UNK        -0.0857 
     47 S47       -76.1457   24.6805  -71.8001 S.3       11 UNK        -0.2512 
     48 C48       -76.8156   26.0071  -70.7489 C.3       11 UNK         0.0225 
     49 N         -77.4391   23.5012  -75.4054 N.am      5 UNK        -0.4615 
     50 C         -76.8587   22.8367  -76.4186 C.2       4 UNK         0.5053 
     51 O         -75.6700   22.9648  -76.7127 O.2       4 UNK        -0.5105 
     52 CA        -77.7352   21.8621  -77.2250 C.3       4 UNK         0.0263 
     53 CB        -76.9253   20.7023  -77.8355 C.3       4 UNK        -0.1981 
     54 N         -78.7939   21.3163  -76.3790 N.am      4 UNK        -0.4224 
     55 C         -80.1009   21.3403  -76.6568 C.2       3 UNK         0.4895 
     56 O         -80.5745   21.7345  -77.7239 O.2       3 UNK        -0.5091 
     57 CA        -81.0567   20.8733  -75.5425 C.3       3 UNK         0.0250 
     58 CB        -80.3582   20.1843  -74.3460 C.3       3 UNK        -0.1996 
     59 N         -81.9013   21.9758  -75.0698 N.am      3 UNK        -0.4254 
     60 C         -81.4945   23.1611  -74.5891 C.2       2 UNK         0.5004 
     61 O         -80.3114   23.4934  -74.4568 O.2       2 UNK        -0.5226 
     62 CA        -82.6205   24.1083  -74.1371 C.3       2 UNK         0.0269 
     63 CB        -83.0950   23.7348  -72.7226 C.3       2 UNK        -0.1926 
     64 N         -82.2262   25.5177  -74.1374 N.am      2 UNK        -0.4687 
     65 C         -81.9252   26.2415  -75.2253 C.2       1 UNK         0.5165 
     66 O         -81.9517   25.7986  -76.3745 O.2       1 UNK        -0.5079 
     67 H67       -83.4231   29.2962  -71.7979 H         1 UNK         0.0900 
     68 H68       -84.6358   30.1261  -72.7744 H         1 UNK         0.0900 
     69 H69       -84.9527   28.4979  -72.1690 H         1 UNK         0.0900 
     70 H70       -81.7359   28.5061  -73.0322 H         1 UNK         0.2959 
     71 H71       -81.8575   28.2662  -75.8861 H         1 UNK         0.1079 
     72 H72       -79.6634   27.3217  -73.9642 H         1 UNK         0.0837 
     73 H73       -79.5234   27.4251  -75.6910 H         1 UNK         0.0837 
     74 H74       -79.1963   30.9402  -72.7694 H         1 UNK         0.0685 
     75 H75       -80.0855   29.4884  -72.4065 H         1 UNK         0.0685 
     76 H76       -78.8969   27.4363  -71.7608 H         1 UNK         0.1434 
     77 H77       -74.6491   27.6098  -71.2057 H         1 UNK         0.1329 
     78 H78       -76.7114   30.8966  -73.0341 H         1 UNK         0.1335 
     79 H79       -74.3313   31.0358  -71.6458 H         1 UNK         0.0680 
     80 H80       -73.4059   29.5554  -71.7859 H         1 UNK         0.0680 
     81 H81       -72.1993   31.8125  -72.6549 H         1 UNK         0.1032 
     82 H82       -72.8816   32.7205  -73.9726 H         1 UNK         0.1032 
     83 H83       -71.5508   31.3494  -75.6044 H         1 UNK         0.0461 
     84 H84       -68.2510   33.1451  -74.7899 H         1 UNK         0.3453 
     85 H85       -68.5640   31.4270  -74.8190 H         1 UNK         0.3453 
     86 H86       -70.6407   29.4478  -75.0284 H         1 UNK         0.2984 
     87 H87       -68.4520   28.4110  -73.5423 H         1 UNK         0.0554 
     88 H88       -68.7909   26.8046  -71.6355 H         1 UNK         0.0847 
     89 H89       -70.1291   27.7952  -71.0544 H         1 UNK         0.0847 
     90 H90       -68.5014   28.4491  -71.0940 H         1 UNK         0.0847 
     91 H91       -69.7688   27.1268  -74.7627 H         1 UNK         0.3141 
     92 H92       -71.3075   25.8039  -75.4817 H         1 UNK         0.0743 
     93 H93       -72.2625   24.2801  -73.8043 H         1 UNK         0.0784 
     94 H94       -73.6844   25.2914  -73.6241 H         1 UNK         0.0784 
     95 H95       -73.3814   24.4527  -75.1489 H         1 UNK         0.0784 
     96 H96       -73.9502   27.0224  -75.4484 H         1 UNK         0.3213 
     97 H97       -73.4029   29.9185  -76.7200 H         1 UNK         0.0855 
     98 H98       -72.1284   29.6045  -78.7683 H         1 UNK         0.0814 
     99 H99       -73.8222   29.7918  -79.1860 H         1 UNK         0.0814 
    100 H100      -73.0703   28.1959  -79.2187 H         1 UNK         0.0814 
    101 H101      -75.4233   29.1285  -76.3897 H         1 UNK         0.3105 
    102 H102      -77.2908   28.1523  -76.5148 H         1 UNK         0.0547 
    103 H103      -77.6927   26.3798  -78.9859 H         1 UNK         0.0837 
    104 H104      -78.9684   27.1588  -78.0508 H         1 UNK         0.0837 
    105 H105      -77.8251   28.1317  -78.9594 H         1 UNK         0.0837 
    106 H106      -77.7605   25.3734  -76.6937 H         1 UNK         0.3020 
    107 H107      -75.7271   24.0190  -74.3864 H         1 UNK         0.1245 
    108 H108      -77.9633   23.6343  -72.9130 H         1 UNK         0.0781 
    109 H109      -78.1134   25.3549  -73.0834 H         1 UNK         0.0781 
    110 H110      -76.2322   26.0489  -69.8281 H         1 UNK         0.0836 
    111 H111      -77.8322   25.7475  -70.4492 H         1 UNK         0.0836 
    112 H112      -78.4303   23.3761  -75.2153 H         1 UNK         0.3022 
    113 H113      -78.1649   22.4458  -78.0417 H         1 UNK         0.0747 
    114 H114      -77.5667   20.0291  -78.4045 H         1 UNK         0.0793 
    115 H115      -76.1611   21.0726  -78.5202 H         1 UNK         0.0793 
    116 H116      -76.4209   20.1153  -77.0670 H         1 UNK         0.0793 
    117 H117      -78.5078   20.9916  -75.4655 H         1 UNK         0.3047 
    118 H118      -81.7227   20.1412  -76.0021 H         1 UNK         0.0822 
    119 H119      -81.0933   19.8025  -73.6373 H         1 UNK         0.0807 
    120 H120      -79.7030   20.8625  -73.7978 H         1 UNK         0.0807 
    121 H121      -79.7629   19.3301  -74.6721 H         1 UNK         0.0807 
    122 H122      -82.8957   21.8152  -75.1516 H         1 UNK         0.2946 
    123 H123      -83.4571   24.0005  -74.8313 H         1 UNK         0.1144 
    124 H124      -83.4397   22.7006  -72.6817 H         1 UNK         0.0793 
    125 H125      -83.9272   24.3626  -72.4032 H         1 UNK         0.0793 
    126 H126      -82.2940   23.8389  -71.9893 H         1 UNK         0.0793 
    127 H127      -82.1673   25.9697  -73.2375 H         1 UNK         0.2896 
@<TRIPOS>BOND
     1    1    2 1    
     2    1   67 1    
     3    1   68 1    
     4    1   69 1    
     5    2    3 2    
     6    2    4 am   BACKBONE|DICT|INTERRES
     7    4    5 1    
     8    4   70 1    
     9    5    6 1    
    10    5   65 1    
    11    5   71 1    
    12    6    7 1    
    13    6   72 1    
    14    6   73 1    
    15    7    8 1    
    16    8    9 1    
    17    8   74 1    
    18    8   75 1    
    19    9   10 ar   
    20    9   14 ar   
    21   10   11 ar   
    22   10   76 1    
    23   11   12 ar   
    24   11   48 1    
    25   12   13 ar   
    26   12   77 1    
    27   13   14 ar   
    28   13   15 1    
    29   14   78 1    
    30   15   16 1    
    31   15   79 1    
    32   15   80 1    
    33   16   17 1    
    34   17   18 1    
    35   17   81 1    
    36   17   82 1    
    37   18   19 1    
    38   18   22 1    
    39   18   83 1    
    40   19   20 am   BACKBONE|DICT|INTERRES
    41   19   21 2    
    42   20   84 1    
    43   20   85 1    
    44   22   23 am   BACKBONE|DICT|INTERRES
    45   22   86 1    
    46   23   24 2    
    47   23   25 1    
    48   25   26 1    
    49   25   27 1    
    50   25   87 1    
    51   26   88 1    
    52   26   89 1    
    53   26   90 1    
    54   27   28 am   BACKBONE|DICT|INTERRES
    55   27   91 1    
    56   28   29 2    
    57   28   30 1    
    58   30   31 1    
    59   30   32 1    
    60   30   92 1    
    61   31   93 1    
    62   31   94 1    
    63   31   95 1    
    64   32   33 am   BACKBONE|DICT|INTERRES
    65   32   96 1    
    66   33   34 2    
    67   33   35 1    
    68   35   36 1    
    69   35   37 1    
    70   35   97 1    
    71   36   98 1    
    72   36   99 1    
    73   36  100 1    
    74   37   38 am   BACKBONE|DICT|INTERRES
    75   37  101 1    
    76   38   39 2    
    77   38   40 1    
    78   40   41 1    
    79   40   42 1    
    80   40  102 1    
    81   41  103 1    
    82   41  104 1    
    83   41  105 1    
    84   42   43 am   BACKBONE|DICT|INTERRES
    85   42  106 1    
    86   43   44 2    
    87   43   45 1    
    88   45   46 1    
    89   45   49 1    
    90   45  107 1    
    91   46   47 1    
    92   46  108 1    
    93   46  109 1    
    94   47   48 1    
    95   48  110 1    
    96   48  111 1    
    97   49   50 am   BACKBONE|DICT|INTERRES
    98   49  112 1    
    99   50   51 2    
   100   50   52 1    
   101   52   53 1    
   102   52   54 1    
   103   52  113 1    
   104   53  114 1    
   105   53  115 1    
   106   53  116 1    
   107   54   55 am   BACKBONE|DICT|INTERRES
   108   54  117 1    
   109   55   56 2    
   110   55   57 1    
   111   57   58 1    
   112   57   59 1    
   113   57  118 1    
   114   58  119 1    
   115   58  120 1    
   116   58  121 1    
   117   59   60 am   BACKBONE|DICT|INTERRES
   118   59  122 1    
   119   60   61 2    
   120   60   62 1    
   121   62   63 1    
   122   62   64 1    
   123   62  123 1    
   124   63  124 1    
   125   63  125 1    
   126   63  126 1    
   127   64   65 am   BACKBONE|DICT|INTERRES
   128   64  127 1    
   129   65   66 2    
@<TRIPOS>SUBSTRUCTURE
     1 UNK         1 GROUP             0       ****    0 ROOT    
