@<TRIPOS>MOLECULE
3R135
127   129    1
SMALL
USER_CHARGES


@<TRIPOS>ATOM
      1 CA        -77.2636   22.0198  -70.2283 C.3       0 UNK        -0.1998 
      2 C         -78.6359   21.9891  -70.8845 C.2       0 UNK         0.4909 
      3 O         -79.2389   20.9217  -70.9964 O.2       0 UNK        -0.5240 
      4 N         -79.1338   23.1536  -71.3197 N.am      1 UNK        -0.4739 
      5 CA        -80.4361   23.3179  -71.9806 C.3       1 UNK         0.0864 
      6 C6        -80.9718   24.7652  -71.8340 C.3       11 UNK        -0.0881 
      7 S7        -79.8542   26.0488  -72.5012 S.3       11 UNK        -0.2682 
      8 C8        -79.3444   26.8969  -70.9759 C.3       11 UNK         0.0289 
      9 C9        -78.4777   28.1001  -71.3020 C.ar      11 UNK        -0.0687 
     10 C10       -79.0756   29.3097  -71.6617 C.ar      11 UNK        -0.0823 
     11 C11       -78.2922   30.4127  -72.0111 C.ar      11 UNK        -0.0830 
     12 C12       -76.8970   30.3094  -71.9661 C.ar      11 UNK        -0.1021 
     13 C13       -76.2886   29.1047  -71.5980 C.ar      11 UNK        -0.0753 
     14 C14       -77.0841   28.0033  -71.2678 C.ar      11 UNK        -0.0933 
     15 C15       -74.7733   28.9841  -71.5595 C.3       11 UNK         0.0166 
     16 S16       -74.0979   28.6326  -73.2114 S.3       11 UNK        -0.2615 
     17 C17       -73.2745   30.2186  -73.5983 C.3       11 UNK        -0.0865 
     18 CA        -72.5740   30.2378  -74.9851 C.3       10 UNK         0.0862 
     19 C         -71.8771   31.6044  -75.2472 C.2       10 UNK         0.5551 
     20 N         -70.5761   31.6496  -75.5077 N.am      10 UNK        -0.7319 
     21 O         -72.5303   32.6443  -75.2158 O.2       10 UNK        -0.5018 
     22 N         -71.7128   29.0604  -75.1702 N.am      10 UNK        -0.4509 
     23 C         -71.3783   28.5038  -76.3382 C.2       10 UNK         0.4899 
     24 O         -71.6788   28.9769  -77.4336 O.2       10 UNK        -0.4839 
     25 CA        -70.6203   27.1629  -76.2846 C.3       9 UNK         0.0222 
     26 CB        -69.0949   27.3825  -76.2644 C.3       9 UNK        -0.1966 
     27 N         -71.0654   26.2624  -75.2063 N.am      9 UNK        -0.4218 
     28 C         -70.9183   26.3985  -73.8787 C.2       9 UNK         0.5020 
     29 O         -70.3177   27.3339  -73.3473 O.2       9 UNK        -0.5274 
     30 CA        -71.6527   25.3660  -73.0126 C.3       8 UNK         0.0270 
     31 CB        -71.5561   25.6634  -71.5038 C.3       8 UNK        -0.1976 
     32 N         -73.0578   25.3585  -73.4116 N.am      8 UNK        -0.4313 
     33 C         -73.7708   24.2769  -73.7414 C.2       8 UNK         0.5041 
     34 O         -73.3461   23.1232  -73.6733 O.2       8 UNK        -0.5577 
     35 CA        -75.1998   24.5264  -74.2534 C.3       7 UNK         0.0284 
     36 CB        -76.2026   24.4579  -73.0914 C.3       7 UNK        -0.1958 
     37 N         -75.3622   25.8018  -74.9588 N.am      7 UNK        -0.4454 
     38 C         -74.7919   26.1091  -76.1340 C.2       7 UNK         0.5089 
     39 O         -74.0139   25.3615  -76.7278 O.2       7 UNK        -0.5125 
     40 CA        -75.1367   27.4809  -76.7372 C.3       6 UNK         0.0408 
     41 CB        -75.1068   27.4918  -78.2771 C.3       6 UNK        -0.1791 
     42 N         -76.4236   27.9820  -76.2461 N.am      6 UNK        -0.4762 
     43 C         -76.6860   29.2731  -75.9992 C.2       6 UNK         0.5007 
     44 O         -75.9017   30.1880  -76.2543 O.2       6 UNK        -0.5032 
     45 CA        -78.0567   29.5835  -75.3616 C.3       5 UNK         0.0783 
     46 C46       -78.2942   31.1094  -75.1639 C.3       11 UNK        -0.0857 
     47 S47       -79.7460   31.4676  -74.1198 S.3       11 UNK        -0.2512 
     48 C48       -78.9634   31.6934  -72.4860 C.3       11 UNK         0.0225 
     49 N         -79.1521   28.8908  -76.0544 N.am      5 UNK        -0.4615 
     50 C         -79.5343   29.0790  -77.3238 C.2       4 UNK         0.5053 
     51 O         -79.0054   29.8743  -78.1016 O.2       4 UNK        -0.5105 
     52 CA        -80.6546   28.1626  -77.8229 C.3       4 UNK         0.0263 
     53 CB        -81.4684   28.7819  -78.9753 C.3       4 UNK        -0.1981 
     54 N         -80.0256   26.9261  -78.2731 N.am      4 UNK        -0.4224 
     55 C         -80.4925   25.6926  -78.0548 C.2       3 UNK         0.4895 
     56 O         -81.5690   25.4578  -77.5015 O.2       3 UNK        -0.5091 
     57 CA        -79.6300   24.5115  -78.5503 C.3       3 UNK         0.0250 
     58 CB        -78.2169   24.9092  -79.0388 C.3       3 UNK        -0.1996 
     59 N         -79.5435   23.4429  -77.5475 N.am      3 UNK        -0.4254 
     60 C         -79.0420   23.5474  -76.3080 C.2       2 UNK         0.5004 
     61 O         -78.5188   24.5684  -75.8526 O.2       2 UNK        -0.5226 
     62 CA        -79.0965   22.2720  -75.4521 C.3       2 UNK         0.0269 
     63 CB        -77.8088   21.4491  -75.6178 C.3       2 UNK        -0.1926 
     64 N         -79.2684   22.6073  -74.0399 N.am      2 UNK        -0.4687 
     65 C         -80.4488   22.8480  -73.4542 C.2       1 UNK         0.5165 
     66 O         -81.5298   22.7065  -74.0293 O.2       1 UNK        -0.5079 
     67 H67       -76.5515   21.4451  -70.8200 H         1 UNK         0.0900 
     68 H68       -77.3143   21.5780  -69.2335 H         1 UNK         0.0900 
     69 H69       -76.8816   23.0354  -70.1265 H         1 UNK         0.0900 
     70 H70       -78.6003   24.0034  -71.2081 H         1 UNK         0.2959 
     71 H71       -81.1461   22.6661  -71.4659 H         1 UNK         0.1079 
     72 H72       -81.1683   24.9690  -70.7804 H         1 UNK         0.0837 
     73 H73       -81.9405   24.8669  -72.3274 H         1 UNK         0.0837 
     74 H74       -78.8079   26.2010  -70.3293 H         1 UNK         0.0685 
     75 H75       -80.2282   27.2194  -70.4230 H         1 UNK         0.0685 
     76 H76       -80.1540   29.3819  -71.7080 H         1 UNK         0.1434 
     77 H77       -76.2829   31.1566  -72.2389 H         1 UNK         0.1329 
     78 H78       -76.6184   27.0688  -70.9887 H         1 UNK         0.1335 
     79 H79       -74.4761   28.1798  -70.8846 H         1 UNK         0.0680 
     80 H80       -74.3368   29.8962  -71.1500 H         1 UNK         0.0680 
     81 H81       -72.5493   30.4285  -72.8097 H         1 UNK         0.1032 
     82 H82       -74.0238   31.0111  -73.5475 H         1 UNK         0.1032 
     83 H83       -73.3575   30.1752  -75.7396 H         1 UNK         0.0461 
     84 H84       -70.1340   32.5390  -75.6784 H         1 UNK         0.3453 
     85 H85       -70.0366   30.7996  -75.5384 H         1 UNK         0.3453 
     86 H86       -71.3665   28.6174  -74.3246 H         1 UNK         0.2984 
     87 H87       -70.8598   26.6382  -77.2109 H         1 UNK         0.0554 
     88 H88       -68.5574   26.4344  -76.2808 H         1 UNK         0.0847 
     89 H89       -68.7697   27.9373  -75.3841 H         1 UNK         0.0847 
     90 H90       -68.7746   27.9510  -77.1385 H         1 UNK         0.0847 
     91 H91       -71.6335   25.4861  -75.5216 H         1 UNK         0.3141 
     92 H92       -71.1878   24.3972  -73.2069 H         1 UNK         0.0743 
     93 H93       -72.0752   24.9045  -70.9183 H         1 UNK         0.0784 
     94 H94       -70.5169   25.6744  -71.1727 H         1 UNK         0.0784 
     95 H95       -71.9908   26.6328  -71.2553 H         1 UNK         0.0784 
     96 H96       -73.4930   26.2678  -73.5108 H         1 UNK         0.3213 
     97 H97       -75.4356   23.7322  -74.9633 H         1 UNK         0.0855 
     98 H98       -76.1725   23.4770  -72.6168 H         1 UNK         0.0814 
     99 H99       -75.9811   25.1999  -72.3242 H         1 UNK         0.0814 
    100 H100      -77.2224   24.6264  -73.4362 H         1 UNK         0.0814 
    101 H101      -75.9520   26.4916  -74.5175 H         1 UNK         0.3105 
    102 H102      -74.3468   28.1452  -76.3871 H         1 UNK         0.0547 
    103 H103      -74.1251   27.1977  -78.6508 H         1 UNK         0.0837 
    104 H104      -75.8378   26.8063  -78.7028 H         1 UNK         0.0837 
    105 H105      -75.3111   28.4879  -78.6696 H         1 UNK         0.0837 
    106 H106      -77.1356   27.2871  -76.0602 H         1 UNK         0.3020 
    107 H107      -78.0026   29.1278  -74.3732 H         1 UNK         0.1245 
    108 H108      -78.4273   31.6074  -76.1253 H         1 UNK         0.0781 
    109 H109      -77.4243   31.5827  -74.7049 H         1 UNK         0.0781 
    110 H110      -79.7256   31.9910  -71.7644 H         1 UNK         0.0836 
    111 H111      -78.2491   32.5168  -72.5340 H         1 UNK         0.0836 
    112 H112      -79.6383   28.1940  -75.5070 H         1 UNK         0.3022 
    113 H113      -81.3312   27.9690  -76.9873 H         1 UNK         0.0747 
    114 H114      -82.2879   28.1281  -79.2741 H         1 UNK         0.0793 
    115 H115      -81.9054   29.7349  -78.6746 H         1 UNK         0.0793 
    116 H116      -80.8517   28.9669  -79.8558 H         1 UNK         0.0793 
    117 H117      -79.1254   27.0322  -78.7202 H         1 UNK         0.3047 
    118 H118      -80.1651   24.0893  -79.4022 H         1 UNK         0.0822 
    119 H119      -78.2616   25.5996  -79.8820 H         1 UNK         0.0807 
    120 H120      -77.6624   24.0346  -79.3796 H         1 UNK         0.0807 
    121 H121      -77.6310   25.3773  -78.2477 H         1 UNK         0.0807 
    122 H122      -79.9650   22.5656  -77.8190 H         1 UNK         0.2946 
    123 H123      -79.9414   21.6615  -75.7802 H         1 UNK         0.1144 
    124 H124      -77.6481   21.1784  -76.6622 H         1 UNK         0.0793 
    125 H125      -77.8568   20.5214  -75.0472 H         1 UNK         0.0793 
    126 H126      -76.9299   21.9999  -75.2852 H         1 UNK         0.0793 
    127 H127      -78.4308   22.7902  -73.5097 H         1 UNK         0.2896 
@<TRIPOS>BOND
     1    1    2 1    
     2    1   67 1    
     3    1   68 1    
     4    1   69 1    
     5    2    3 2    
     6    2    4 am   BACKBONE|DICT|INTERRES
     7    4    5 1    
     8    4   70 1    
     9    5    6 1    
    10    5   65 1    
    11    5   71 1    
    12    6    7 1    
    13    6   72 1    
    14    6   73 1    
    15    7    8 1    
    16    8    9 1    
    17    8   74 1    
    18    8   75 1    
    19    9   10 ar   
    20    9   14 ar   
    21   10   11 ar   
    22   10   76 1    
    23   11   12 ar   
    24   11   48 1    
    25   12   13 ar   
    26   12   77 1    
    27   13   14 ar   
    28   13   15 1    
    29   14   78 1    
    30   15   16 1    
    31   15   79 1    
    32   15   80 1    
    33   16   17 1    
    34   17   18 1    
    35   17   81 1    
    36   17   82 1    
    37   18   19 1    
    38   18   22 1    
    39   18   83 1    
    40   19   20 am   BACKBONE|DICT|INTERRES
    41   19   21 2    
    42   20   84 1    
    43   20   85 1    
    44   22   23 am   BACKBONE|DICT|INTERRES
    45   22   86 1    
    46   23   24 2    
    47   23   25 1    
    48   25   26 1    
    49   25   27 1    
    50   25   87 1    
    51   26   88 1    
    52   26   89 1    
    53   26   90 1    
    54   27   28 am   BACKBONE|DICT|INTERRES
    55   27   91 1    
    56   28   29 2    
    57   28   30 1    
    58   30   31 1    
    59   30   32 1    
    60   30   92 1    
    61   31   93 1    
    62   31   94 1    
    63   31   95 1    
    64   32   33 am   BACKBONE|DICT|INTERRES
    65   32   96 1    
    66   33   34 2    
    67   33   35 1    
    68   35   36 1    
    69   35   37 1    
    70   35   97 1    
    71   36   98 1    
    72   36   99 1    
    73   36  100 1    
    74   37   38 am   BACKBONE|DICT|INTERRES
    75   37  101 1    
    76   38   39 2    
    77   38   40 1    
    78   40   41 1    
    79   40   42 1    
    80   40  102 1    
    81   41  103 1    
    82   41  104 1    
    83   41  105 1    
    84   42   43 am   BACKBONE|DICT|INTERRES
    85   42  106 1    
    86   43   44 2    
    87   43   45 1    
    88   45   46 1    
    89   45   49 1    
    90   45  107 1    
    91   46   47 1    
    92   46  108 1    
    93   46  109 1    
    94   47   48 1    
    95   48  110 1    
    96   48  111 1    
    97   49   50 am   BACKBONE|DICT|INTERRES
    98   49  112 1    
    99   50   51 2    
   100   50   52 1    
   101   52   53 1    
   102   52   54 1    
   103   52  113 1    
   104   53  114 1    
   105   53  115 1    
   106   53  116 1    
   107   54   55 am   BACKBONE|DICT|INTERRES
   108   54  117 1    
   109   55   56 2    
   110   55   57 1    
   111   57   58 1    
   112   57   59 1    
   113   57  118 1    
   114   58  119 1    
   115   58  120 1    
   116   58  121 1    
   117   59   60 am   BACKBONE|DICT|INTERRES
   118   59  122 1    
   119   60   61 2    
   120   60   62 1    
   121   62   63 1    
   122   62   64 1    
   123   62  123 1    
   124   63  124 1    
   125   63  125 1    
   126   63  126 1    
   127   64   65 am   BACKBONE|DICT|INTERRES
   128   64  127 1    
   129   65   66 2    
@<TRIPOS>SUBSTRUCTURE
     1 UNK         1 GROUP             0       ****    0 ROOT    
