@<TRIPOS>MOLECULE
3R135
127   129    1
SMALL
USER_CHARGES


@<TRIPOS>ATOM
      1 CA        -84.9057   29.1990  -78.1148 C.3       0 UNK        -0.1998 
      2 C         -84.0891   28.7518  -76.9117 C.2       0 UNK         0.4909 
      3 O         -84.6618   28.2788  -75.9300 O.2       0 UNK        -0.5240 
      4 N         -82.7579   28.9017  -76.9855 N.am      1 UNK        -0.4739 
      5 CA        -81.7803   28.5162  -75.9557 C.3       1 UNK         0.0864 
      6 C6        -81.9293   29.3508  -74.6465 C.3       11 UNK        -0.0881 
      7 S7        -80.3156   29.8701  -73.9757 S.3       11 UNK        -0.2682 
      8 C8        -80.2062   28.8920  -72.4375 C.3       11 UNK         0.0289 
      9 C9        -78.7857   28.7005  -71.8982 C.ar      11 UNK        -0.0687 
     10 C10       -78.5200   27.5816  -71.1026 C.ar      11 UNK        -0.0823 
     11 C11       -77.2404   27.3578  -70.5899 C.ar      11 UNK        -0.0830 
     12 C12       -76.2210   28.2684  -70.8636 C.ar      11 UNK        -0.1021 
     13 C13       -76.4489   29.3753  -71.6859 C.ar      11 UNK        -0.0753 
     14 C14       -77.7401   29.5924  -72.1813 C.ar      11 UNK        -0.0933 
     15 C15       -75.3183   30.3077  -72.1247 C.3       11 UNK         0.0166 
     16 S16       -73.9913   30.5867  -70.8981 S.3       11 UNK        -0.2615 
     17 C17       -72.8492   29.1805  -71.1614 C.3       11 UNK        -0.0865 
     18 CA        -71.7334   29.4891  -72.1901 C.3       10 UNK         0.0862 
     19 C         -70.5732   28.4680  -72.0741 C.2       10 UNK         0.5551 
     20 N         -69.4163   28.8918  -71.5847 N.am      10 UNK        -0.7319 
     21 O         -70.7288   27.2878  -72.3813 O.2       10 UNK        -0.5018 
     22 N         -72.2660   29.4674  -73.5547 N.am      10 UNK        -0.4509 
     23 C         -71.8165   30.2203  -74.5633 C.2       10 UNK         0.4899 
     24 O         -70.9537   31.0920  -74.4408 O.2       10 UNK        -0.4839 
     25 CA        -72.4464   29.9376  -75.9395 C.3       9 UNK         0.0222 
     26 CB        -71.8295   30.7760  -77.0794 C.3       9 UNK        -0.1966 
     27 N         -72.4367   28.5082  -76.2709 N.am      9 UNK        -0.4218 
     28 C         -71.3670   27.7074  -76.4113 C.2       9 UNK         0.5020 
     29 O         -70.2020   28.0986  -76.3237 O.2       9 UNK        -0.5274 
     30 CA        -71.6165   26.2101  -76.6876 C.3       8 UNK         0.0270 
     31 CB        -71.1922   25.3697  -75.4717 C.3       8 UNK        -0.1976 
     32 N         -73.0043   25.8841  -77.0271 N.am      8 UNK        -0.4313 
     33 C         -73.6111   26.1882  -78.1822 C.2       8 UNK         0.5041 
     34 O         -73.0396   26.7100  -79.1401 O.2       8 UNK        -0.5577 
     35 CA        -75.1232   25.9085  -78.2629 C.3       7 UNK         0.0284 
     36 CB        -75.3904   24.4609  -78.7041 C.3       7 UNK        -0.1958 
     37 N         -75.8278   26.1776  -77.0043 N.am      7 UNK        -0.4454 
     38 C         -75.8952   27.3743  -76.4015 C.2       7 UNK         0.5089 
     39 O         -75.3853   28.4001  -76.8495 O.2       7 UNK        -0.5125 
     40 CA        -76.6082   27.4210  -75.0440 C.3       6 UNK         0.0408 
     41 CB        -78.1311   27.3758  -75.2355 C.3       6 UNK        -0.1791 
     42 N         -76.1644   26.3305  -74.1737 N.am      6 UNK        -0.4762 
     43 C         -74.9502   26.2716  -73.6045 C.2       6 UNK         0.5007 
     44 O         -74.1132   27.1710  -73.7011 O.2       6 UNK        -0.5032 
     45 CA        -74.5741   24.9679  -72.8645 C.3       5 UNK         0.0783 
     46 C46       -74.8131   25.0407  -71.3320 C.3       11 UNK        -0.0857 
     47 S47       -76.5343   24.6947  -70.8083 S.3       11 UNK        -0.2512 
     48 C48       -76.9489   26.1215  -69.7564 C.3       11 UNK         0.0225 
     49 N         -75.1987   23.7826  -73.4588 N.am      5 UNK        -0.4615 
     50 C         -74.9335   23.2961  -74.6769 C.2       4 UNK         0.5053 
     51 O         -74.0712   23.7565  -75.4223 O.2       4 UNK        -0.5105 
     52 CA        -75.8268   22.1413  -75.1637 C.3       4 UNK         0.0263 
     53 CB        -75.2873   20.7920  -74.6643 C.3       4 UNK        -0.1981 
     54 N         -77.2289   22.2977  -74.7553 N.am      4 UNK        -0.4224 
     55 C         -78.0142   23.3129  -75.1417 C.2       3 UNK         0.4895 
     56 O         -77.6423   24.1987  -75.9137 O.2       3 UNK        -0.5091 
     57 CA        -79.4061   23.3863  -74.4903 C.3       3 UNK         0.0250 
     58 CB        -79.3043   23.9835  -73.0773 C.3       3 UNK        -0.1996 
     59 N         -80.3610   24.1876  -75.2576 N.am      3 UNK        -0.4254 
     60 C         -80.8782   23.8569  -76.4445 C.2       2 UNK         0.5004 
     61 O         -80.5795   22.8278  -77.0527 O.2       2 UNK        -0.5226 
     62 CA        -81.9399   24.7944  -77.0545 C.3       2 UNK         0.0269 
     63 CB        -83.3504   24.3749  -76.5958 C.3       2 UNK        -0.1926 
     64 N         -81.7513   26.2449  -76.8708 N.am      2 UNK        -0.4687 
     65 C         -81.7573   26.9807  -75.7461 C.2       1 UNK         0.5165 
     66 O         -81.7738   26.4986  -74.6125 O.2       1 UNK        -0.5079 
     67 H67       -85.4638   28.3566  -78.5228 H         1 UNK         0.0900 
     68 H68       -85.6182   29.9687  -77.8191 H         1 UNK         0.0900 
     69 H69       -84.2777   29.6054  -78.9074 H         1 UNK         0.0900 
     70 H70       -82.3614   29.3057  -77.8235 H         1 UNK         0.2959 
     71 H71       -80.8136   28.7570  -76.4005 H         1 UNK         0.1079 
     72 H72       -82.5260   28.8378  -73.8900 H         1 UNK         0.0837 
     73 H73       -82.4739   30.2736  -74.8523 H         1 UNK         0.0837 
     74 H74       -80.6490   27.9121  -72.6211 H         1 UNK         0.0685 
     75 H75       -80.8159   29.3709  -71.6706 H         1 UNK         0.0685 
     76 H76       -79.3095   26.8737  -70.8892 H         1 UNK         0.1434 
     77 H77       -75.2454   28.0886  -70.4459 H         1 UNK         0.1329 
     78 H78       -77.9191   30.4521  -72.8108 H         1 UNK         0.1335 
     79 H79       -74.8903   29.9217  -73.0494 H         1 UNK         0.0680 
     80 H80       -75.7343   31.2856  -72.3713 H         1 UNK         0.0680 
     81 H81       -73.3896   28.2850  -71.4625 H         1 UNK         0.1032 
     82 H82       -72.4138   28.9504  -70.1868 H         1 UNK         0.1032 
     83 H83       -71.3409   30.4846  -71.9711 H         1 UNK         0.0461 
     84 H84       -69.2829   29.8568  -71.3242 H         1 UNK         0.3453 
     85 H85       -68.6563   28.2368  -71.4875 H         1 UNK         0.3453 
     86 H86       -72.9264   28.7194  -73.7494 H         1 UNK         0.2984 
     87 H87       -73.4963   30.2221  -75.8568 H         1 UNK         0.0554 
     88 H88       -71.9422   31.8428  -76.8827 H         1 UNK         0.0847 
     89 H89       -72.3180   30.5690  -78.0316 H         1 UNK         0.0847 
     90 H90       -70.7637   30.5799  -77.1993 H         1 UNK         0.0847 
     91 H91       -73.3559   28.0941  -76.3782 H         1 UNK         0.3141 
     92 H92       -70.9870   25.9280  -77.5340 H         1 UNK         0.0743 
     93 H93       -70.1440   25.5408  -75.2225 H         1 UNK         0.0784 
     94 H94       -71.7787   25.6223  -74.5878 H         1 UNK         0.0784 
     95 H95       -71.3100   24.3028  -75.6621 H         1 UNK         0.0784 
     96 H96       -73.5291   25.3550  -76.3343 H         1 UNK         0.3213 
     97 H97       -75.5407   26.5776  -79.0182 H         1 UNK         0.0855 
     98 H98       -74.9846   23.7403  -77.9942 H         1 UNK         0.0814 
     99 H99       -74.9304   24.2583  -79.6722 H         1 UNK         0.0814 
    100 H100      -76.4585   24.2664  -78.8042 H         1 UNK         0.0814 
    101 H101      -76.3238   25.3985  -76.5761 H         1 UNK         0.3105 
    102 H102      -76.3585   28.3649  -74.5555 H         1 UNK         0.0547 
    103 H103      -78.4529   26.5632  -75.8845 H         1 UNK         0.0837 
    104 H104      -78.4749   28.3011  -75.6967 H         1 UNK         0.0837 
    105 H105      -78.6526   27.2662  -74.2867 H         1 UNK         0.0837 
    106 H106      -76.7757   25.5316  -74.0947 H         1 UNK         0.3020 
    107 H107      -73.4966   24.8591  -73.0089 H         1 UNK         0.1245 
    108 H108      -74.4692   25.9925  -70.9279 H         1 UNK         0.0781 
    109 H109      -74.1871   24.2901  -70.8472 H         1 UNK         0.0781 
    110 H110      -76.1393   26.3088  -69.0493 H         1 UNK         0.0836 
    111 H111      -77.8238   25.8712  -69.1544 H         1 UNK         0.0836 
    112 H112      -75.9235   23.3495  -72.9051 H         1 UNK         0.3022 
    113 H113      -75.7964   22.1383  -76.2552 H         1 UNK         0.0747 
    114 H114      -75.8616   19.9598  -75.0718 H         1 UNK         0.0793 
    115 H115      -74.2506   20.6494  -74.9733 H         1 UNK         0.0793 
    116 H116      -75.3157   20.7201  -73.5763 H         1 UNK         0.0793 
    117 H117      -77.5974   21.6074  -74.1163 H         1 UNK         0.3047 
    118 H118      -79.8049   22.3723  -74.4174 H         1 UNK         0.0822 
    119 H119      -80.2829   24.0445  -72.6007 H         1 UNK         0.0807 
    120 H120      -78.8789   24.9879  -73.0896 H         1 UNK         0.0807 
    121 H121      -78.6763   23.3666  -72.4342 H         1 UNK         0.0807 
    122 H122      -80.7019   25.0457  -74.8311 H         1 UNK         0.2946 
    123 H123      -81.8906   24.6322  -78.1329 H         1 UNK         0.1144 
    124 H124      -84.1215   24.9520  -77.1064 H         1 UNK         0.0793 
    125 H125      -83.4857   24.5128  -75.5225 H         1 UNK         0.0793 
    126 H126      -83.5361   23.3222  -76.8136 H         1 UNK         0.0793 
    127 H127      -81.7014   26.7627  -77.7374 H         1 UNK         0.2896 
@<TRIPOS>BOND
     1    1    2 1    
     2    1   67 1    
     3    1   68 1    
     4    1   69 1    
     5    2    3 2    
     6    2    4 am   BACKBONE|DICT|INTERRES
     7    4    5 1    
     8    4   70 1    
     9    5    6 1    
    10    5   65 1    
    11    5   71 1    
    12    6    7 1    
    13    6   72 1    
    14    6   73 1    
    15    7    8 1    
    16    8    9 1    
    17    8   74 1    
    18    8   75 1    
    19    9   10 ar   
    20    9   14 ar   
    21   10   11 ar   
    22   10   76 1    
    23   11   12 ar   
    24   11   48 1    
    25   12   13 ar   
    26   12   77 1    
    27   13   14 ar   
    28   13   15 1    
    29   14   78 1    
    30   15   16 1    
    31   15   79 1    
    32   15   80 1    
    33   16   17 1    
    34   17   18 1    
    35   17   81 1    
    36   17   82 1    
    37   18   19 1    
    38   18   22 1    
    39   18   83 1    
    40   19   20 am   BACKBONE|DICT|INTERRES
    41   19   21 2    
    42   20   84 1    
    43   20   85 1    
    44   22   23 am   BACKBONE|DICT|INTERRES
    45   22   86 1    
    46   23   24 2    
    47   23   25 1    
    48   25   26 1    
    49   25   27 1    
    50   25   87 1    
    51   26   88 1    
    52   26   89 1    
    53   26   90 1    
    54   27   28 am   BACKBONE|DICT|INTERRES
    55   27   91 1    
    56   28   29 2    
    57   28   30 1    
    58   30   31 1    
    59   30   32 1    
    60   30   92 1    
    61   31   93 1    
    62   31   94 1    
    63   31   95 1    
    64   32   33 am   BACKBONE|DICT|INTERRES
    65   32   96 1    
    66   33   34 2    
    67   33   35 1    
    68   35   36 1    
    69   35   37 1    
    70   35   97 1    
    71   36   98 1    
    72   36   99 1    
    73   36  100 1    
    74   37   38 am   BACKBONE|DICT|INTERRES
    75   37  101 1    
    76   38   39 2    
    77   38   40 1    
    78   40   41 1    
    79   40   42 1    
    80   40  102 1    
    81   41  103 1    
    82   41  104 1    
    83   41  105 1    
    84   42   43 am   BACKBONE|DICT|INTERRES
    85   42  106 1    
    86   43   44 2    
    87   43   45 1    
    88   45   46 1    
    89   45   49 1    
    90   45  107 1    
    91   46   47 1    
    92   46  108 1    
    93   46  109 1    
    94   47   48 1    
    95   48  110 1    
    96   48  111 1    
    97   49   50 am   BACKBONE|DICT|INTERRES
    98   49  112 1    
    99   50   51 2    
   100   50   52 1    
   101   52   53 1    
   102   52   54 1    
   103   52  113 1    
   104   53  114 1    
   105   53  115 1    
   106   53  116 1    
   107   54   55 am   BACKBONE|DICT|INTERRES
   108   54  117 1    
   109   55   56 2    
   110   55   57 1    
   111   57   58 1    
   112   57   59 1    
   113   57  118 1    
   114   58  119 1    
   115   58  120 1    
   116   58  121 1    
   117   59   60 am   BACKBONE|DICT|INTERRES
   118   59  122 1    
   119   60   61 2    
   120   60   62 1    
   121   62   63 1    
   122   62   64 1    
   123   62  123 1    
   124   63  124 1    
   125   63  125 1    
   126   63  126 1    
   127   64   65 am   BACKBONE|DICT|INTERRES
   128   64  127 1    
   129   65   66 2    
@<TRIPOS>SUBSTRUCTURE
     1 UNK         1 GROUP             0       ****    0 ROOT    
