@<TRIPOS>MOLECULE
3R135
127   129    1
SMALL
USER_CHARGES


@<TRIPOS>ATOM
      1 CA        -82.9220   28.2010  -77.7411 C.3       0 UNK        -0.1998 
      2 C         -81.9280   27.6544  -76.7282 C.2       0 UNK         0.4909 
      3 O         -81.0793   26.8406  -77.0913 O.2       0 UNK        -0.5240 
      4 N         -82.0425   28.0893  -75.4638 N.am      1 UNK        -0.4739 
      5 CA        -81.1786   27.7575  -74.3178 C.3       1 UNK         0.0864 
      6 C6        -81.7593   28.3356  -73.0045 C.3       11 UNK        -0.0881 
      7 S7        -81.4716   30.1313  -72.8658 S.3       11 UNK        -0.2682 
      8 C8        -80.9179   30.2909  -71.1352 C.3       11 UNK         0.0289 
      9 C9        -79.4771   29.8372  -70.9295 C.ar      11 UNK        -0.0687 
     10 C10       -79.1945   28.5205  -70.5526 C.ar      11 UNK        -0.0823 
     11 C11       -77.8776   28.1063  -70.3408 C.ar      11 UNK        -0.0830 
     12 C12       -76.8393   29.0328  -70.4563 C.ar      11 UNK        -0.1021 
     13 C13       -77.1032   30.3535  -70.8336 C.ar      11 UNK        -0.0753 
     14 C14       -78.4242   30.7460  -71.0787 C.ar      11 UNK        -0.0933 
     15 C15       -75.9688   31.3636  -70.9525 C.3       11 UNK         0.0166 
     16 S16       -74.9437   31.0759  -72.4309 S.3       11 UNK        -0.2615 
     17 C17       -73.8162   29.7613  -71.8487 C.3       11 UNK        -0.0865 
     18 CA        -72.4176   29.8451  -72.5044 C.3       10 UNK         0.0862 
     19 C         -71.4421   28.8279  -71.8587 C.2       10 UNK         0.5551 
     20 N         -70.4928   29.2953  -71.0601 N.am      10 UNK        -0.7319 
     21 O         -71.5698   27.6187  -72.0395 O.2       10 UNK        -0.5018 
     22 N         -72.4970   29.6214  -73.9503 N.am      10 UNK        -0.4509 
     23 C         -71.6305   30.1148  -74.8410 C.2       10 UNK         0.4899 
     24 O         -70.7085   30.8807  -74.5530 O.2       10 UNK        -0.4839 
     25 CA        -71.8407   29.6666  -76.2976 C.3       9 UNK         0.0222 
     26 CB        -70.7708   30.2106  -77.2686 C.3       9 UNK        -0.1966 
     27 N         -71.9670   28.2103  -76.4098 N.am      9 UNK        -0.4218 
     28 C         -71.0499   27.2797  -76.0950 C.2       9 UNK         0.5020 
     29 O         -69.9156   27.5419  -75.6923 O.2       9 UNK        -0.5274 
     30 CA        -71.4504   25.7962  -76.2425 C.3       8 UNK         0.0270 
     31 CB        -71.5509   25.1355  -74.8583 C.3       8 UNK        -0.1976 
     32 N         -72.7066   25.5863  -76.9691 N.am      8 UNK        -0.4313 
     33 C         -72.8743   25.7986  -78.2818 C.2       8 UNK         0.5041 
     34 O         -71.9596   26.0996  -79.0495 O.2       8 UNK        -0.5577 
     35 CA        -74.3105   25.7078  -78.8218 C.3       7 UNK         0.0284 
     36 CB        -74.6242   24.2729  -79.2739 C.3       7 UNK        -0.1958 
     37 N         -75.3214   26.1609  -77.8580 N.am      7 UNK        -0.4454 
     38 C         -75.4317   27.4156  -77.3950 C.2       7 UNK         0.5089 
     39 O         -74.6904   28.3352  -77.7401 O.2       7 UNK        -0.5125 
     40 CA        -76.5119   27.6830  -76.3318 C.3       6 UNK         0.0408 
     41 CB        -77.9149   27.6801  -76.9543 C.3       6 UNK        -0.1791 
     42 N         -76.4447   26.7269  -75.2245 N.am      6 UNK        -0.4762 
     43 C         -75.4251   26.6582  -74.3544 C.2       6 UNK         0.5007 
     44 O         -74.4969   27.4686  -74.3357 O.2       6 UNK        -0.5032 
     45 CA        -75.3752   25.4417  -73.4042 C.3       5 UNK         0.0783 
     46 C46       -75.7272   25.7758  -71.9286 C.3       11 UNK        -0.0857 
     47 S47       -77.4906   25.6230  -71.4851 S.3       11 UNK        -0.2512 
     48 C48       -77.5882   26.6559  -69.9878 C.3       11 UNK         0.0225 
     49 N         -76.0963   24.2764  -73.9315 N.am      5 UNK        -0.4615 
     50 C         -75.6706   23.5459  -74.9697 C.2       4 UNK         0.5053 
     51 O         -74.6372   23.7912  -75.5939 O.2       4 UNK        -0.5105 
     52 CA        -76.5470   22.3542  -75.3879 C.3       4 UNK         0.0263 
     53 CB        -76.6930   21.3359  -74.2440 C.3       4 UNK        -0.1981 
     54 N         -77.8752   22.7299  -75.8814 N.am      4 UNK        -0.4224 
     55 C         -78.1340   23.5409  -76.9150 C.2       3 UNK         0.4895 
     56 O         -77.2722   24.1805  -77.5123 O.2       3 UNK        -0.5091 
     57 CA        -79.5933   23.6556  -77.3886 C.3       3 UNK         0.0250 
     58 CB        -80.0262   22.4055  -78.1792 C.3       3 UNK        -0.1996 
     59 N         -80.5524   23.9936  -76.3324 N.am      3 UNK        -0.4254 
     60 C         -80.9136   23.2788  -75.2554 C.2       2 UNK         0.5004 
     61 O         -80.4943   22.1435  -75.0200 O.2       2 UNK        -0.5226 
     62 CA        -81.8962   23.9452  -74.2667 C.3       2 UNK         0.0269 
     63 CB        -81.6544   23.4879  -72.8116 C.3       2 UNK        -0.1926 
     64 N         -81.9257   25.4148  -74.3404 N.am      2 UNK        -0.4687 
     65 C         -80.8914   26.2514  -74.1534 C.2       1 UNK         0.5165 
     66 O         -79.7443   25.8834  -73.9048 O.2       1 UNK        -0.5079 
     67 H67       -83.6219   28.9038  -77.2896 H         1 UNK         0.0900 
     68 H68       -82.3931   28.7161  -78.5425 H         1 UNK         0.0900 
     69 H69       -83.4953   27.3853  -78.1807 H         1 UNK         0.0900 
     70 H70       -82.7655   28.7640  -75.2563 H         1 UNK         0.2959 
     71 H71       -80.2105   28.2272  -74.5005 H         1 UNK         0.1079 
     72 H72       -81.3280   27.8412  -72.1365 H         1 UNK         0.0837 
     73 H73       -82.8319   28.1443  -72.9368 H         1 UNK         0.0837 
     74 H74       -81.0152   31.3360  -70.8370 H         1 UNK         0.0685 
     75 H75       -81.5906   29.7315  -70.4830 H         1 UNK         0.0685 
     76 H76       -79.9957   27.8080  -70.4207 H         1 UNK         0.1434 
     77 H77       -75.8251   28.7211  -70.2569 H         1 UNK         0.1329 
     78 H78       -78.6377   31.7661  -71.3677 H         1 UNK         0.1335 
     79 H79       -76.3728   32.3753  -71.0120 H         1 UNK         0.0680 
     80 H80       -75.3531   31.3418  -70.0524 H         1 UNK         0.0680 
     81 H81       -74.2744   28.7940  -72.0527 H         1 UNK         0.1032 
     82 H82       -73.7182   29.8340  -70.7641 H         1 UNK         0.1032 
     83 H83       -72.0338   30.8524  -72.3273 H         1 UNK         0.0461 
     84 H84       -69.8604   28.6458  -70.6192 H         1 UNK         0.3453 
     85 H85       -70.3843   30.2853  -70.9030 H         1 UNK         0.3453 
     86 H86       -73.1947   28.9457  -74.2494 H         1 UNK         0.2984 
     87 H87       -72.8019   30.0792  -76.6074 H         1 UNK         0.0554 
     88 H88       -70.9658   29.8901  -78.2920 H         1 UNK         0.0847 
     89 H89       -69.7678   29.8792  -76.9985 H         1 UNK         0.0847 
     90 H90       -70.7625   31.3011  -77.2664 H         1 UNK         0.0847 
     91 H91       -72.8729   27.8913  -76.7343 H         1 UNK         0.3141 
     92 H92       -70.6554   25.2977  -76.8009 H         1 UNK         0.0743 
     93 H93       -71.8735   24.0964  -74.9279 H         1 UNK         0.0784 
     94 H94       -70.5835   25.1427  -74.3544 H         1 UNK         0.0784 
     95 H95       -72.2484   25.6691  -74.2135 H         1 UNK         0.0784 
     96 H96       -73.4996   25.2442  -76.4336 H         1 UNK         0.3213 
     97 H97       -74.3728   26.3608  -79.6949 H         1 UNK         0.0855 
     98 H98       -73.8871   23.9191  -79.9960 H         1 UNK         0.0814 
     99 H99       -75.6014   24.2137  -79.7533 H         1 UNK         0.0814 
    100 H100      -74.6213   23.5767  -78.4341 H         1 UNK         0.0814 
    101 H101      -75.9936   25.4578  -77.5515 H         1 UNK         0.3105 
    102 H102      -76.3338   28.6798  -75.9223 H         1 UNK         0.0547 
    103 H103      -78.6669   27.9794  -76.2269 H         1 UNK         0.0837 
    104 H104      -78.1954   26.6993  -77.3375 H         1 UNK         0.0837 
    105 H105      -77.9757   28.3830  -77.7860 H         1 UNK         0.0837 
    106 H106      -77.1684   26.0235  -75.1721 H         1 UNK         0.3020 
    107 H107      -74.3207   25.1600  -73.3882 H         1 UNK         0.1245 
    108 H108      -75.3674   26.7688  -71.6598 H         1 UNK         0.0781 
    109 H109      -75.1848   25.0901  -71.2757 H         1 UNK         0.0781 
    110 H110      -76.6665   26.5697  -69.4102 H         1 UNK         0.0836 
    111 H111      -78.3826   26.2697  -69.3474 H         1 UNK         0.0836 
    112 H112      -76.9684   24.0473  -73.4750 H         1 UNK         0.3022 
    113 H113      -76.0313   21.8563  -76.2118 H         1 UNK         0.0747 
    114 H114      -77.1739   20.4211  -74.5908 H         1 UNK         0.0793 
    115 H115      -75.7184   21.0549  -73.8421 H         1 UNK         0.0793 
    116 H116      -77.2873   21.7302  -73.4188 H         1 UNK         0.0793 
    117 H117      -78.6789   22.2856  -75.4428 H         1 UNK         0.3047 
    118 H118      -79.6255   24.4996  -78.0800 H         1 UNK         0.0822 
    119 H119      -80.0215   21.5057  -77.5636 H         1 UNK         0.0807 
    120 H120      -79.3525   22.2257  -79.0181 H         1 UNK         0.0807 
    121 H121      -81.0289   22.5252  -78.5895 H         1 UNK         0.0807 
    122 H122      -80.9169   24.9397  -76.4025 H         1 UNK         0.2946 
    123 H123      -82.8889   23.6011  -74.5614 H         1 UNK         0.1144 
    124 H124      -81.7717   22.4079  -72.7134 H         1 UNK         0.0793 
    125 H125      -80.6484   23.7370  -72.4713 H         1 UNK         0.0793 
    126 H126      -82.3643   23.9511  -72.1265 H         1 UNK         0.0793 
    127 H127      -82.8178   25.8248  -74.5819 H         1 UNK         0.2896 
@<TRIPOS>BOND
     1    1    2 1    
     2    1   67 1    
     3    1   68 1    
     4    1   69 1    
     5    2    3 2    
     6    2    4 am   BACKBONE|DICT|INTERRES
     7    4    5 1    
     8    4   70 1    
     9    5    6 1    
    10    5   65 1    
    11    5   71 1    
    12    6    7 1    
    13    6   72 1    
    14    6   73 1    
    15    7    8 1    
    16    8    9 1    
    17    8   74 1    
    18    8   75 1    
    19    9   10 ar   
    20    9   14 ar   
    21   10   11 ar   
    22   10   76 1    
    23   11   12 ar   
    24   11   48 1    
    25   12   13 ar   
    26   12   77 1    
    27   13   14 ar   
    28   13   15 1    
    29   14   78 1    
    30   15   16 1    
    31   15   79 1    
    32   15   80 1    
    33   16   17 1    
    34   17   18 1    
    35   17   81 1    
    36   17   82 1    
    37   18   19 1    
    38   18   22 1    
    39   18   83 1    
    40   19   20 am   BACKBONE|DICT|INTERRES
    41   19   21 2    
    42   20   84 1    
    43   20   85 1    
    44   22   23 am   BACKBONE|DICT|INTERRES
    45   22   86 1    
    46   23   24 2    
    47   23   25 1    
    48   25   26 1    
    49   25   27 1    
    50   25   87 1    
    51   26   88 1    
    52   26   89 1    
    53   26   90 1    
    54   27   28 am   BACKBONE|DICT|INTERRES
    55   27   91 1    
    56   28   29 2    
    57   28   30 1    
    58   30   31 1    
    59   30   32 1    
    60   30   92 1    
    61   31   93 1    
    62   31   94 1    
    63   31   95 1    
    64   32   33 am   BACKBONE|DICT|INTERRES
    65   32   96 1    
    66   33   34 2    
    67   33   35 1    
    68   35   36 1    
    69   35   37 1    
    70   35   97 1    
    71   36   98 1    
    72   36   99 1    
    73   36  100 1    
    74   37   38 am   BACKBONE|DICT|INTERRES
    75   37  101 1    
    76   38   39 2    
    77   38   40 1    
    78   40   41 1    
    79   40   42 1    
    80   40  102 1    
    81   41  103 1    
    82   41  104 1    
    83   41  105 1    
    84   42   43 am   BACKBONE|DICT|INTERRES
    85   42  106 1    
    86   43   44 2    
    87   43   45 1    
    88   45   46 1    
    89   45   49 1    
    90   45  107 1    
    91   46   47 1    
    92   46  108 1    
    93   46  109 1    
    94   47   48 1    
    95   48  110 1    
    96   48  111 1    
    97   49   50 am   BACKBONE|DICT|INTERRES
    98   49  112 1    
    99   50   51 2    
   100   50   52 1    
   101   52   53 1    
   102   52   54 1    
   103   52  113 1    
   104   53  114 1    
   105   53  115 1    
   106   53  116 1    
   107   54   55 am   BACKBONE|DICT|INTERRES
   108   54  117 1    
   109   55   56 2    
   110   55   57 1    
   111   57   58 1    
   112   57   59 1    
   113   57  118 1    
   114   58  119 1    
   115   58  120 1    
   116   58  121 1    
   117   59   60 am   BACKBONE|DICT|INTERRES
   118   59  122 1    
   119   60   61 2    
   120   60   62 1    
   121   62   63 1    
   122   62   64 1    
   123   62  123 1    
   124   63  124 1    
   125   63  125 1    
   126   63  126 1    
   127   64   65 am   BACKBONE|DICT|INTERRES
   128   64  127 1    
   129   65   66 2    
@<TRIPOS>SUBSTRUCTURE
     1 UNK         1 GROUP             0       ****    0 ROOT    
