@<TRIPOS>MOLECULE
3R135
127   129    1
SMALL
USER_CHARGES


@<TRIPOS>ATOM
      1 CA        -77.4169   26.3461  -69.5738 C.3       0 UNK        -0.1998 
      2 C         -78.7760   25.7311  -69.8650 C.2       0 UNK         0.4909 
      3 O         -79.0257   24.5886  -69.4777 O.2       0 UNK        -0.5240 
      4 N         -79.6619   26.4862  -70.5254 N.am      1 UNK        -0.4739 
      5 CA        -81.0113   26.0484  -70.9030 C.3       1 UNK         0.0864 
      6 C6        -81.9730   27.2380  -71.1686 C.3       11 UNK        -0.0881 
      7 S7        -81.8853   28.5365  -69.8816 S.3       11 UNK        -0.2682 
      8 C8        -81.4874   30.0395  -70.8385 C.3       11 UNK         0.0289 
      9 C9        -80.2644   29.8781  -71.7342 C.ar      11 UNK        -0.0687 
     10 C10       -80.4280   29.7640  -73.1190 C.ar      11 UNK        -0.0823 
     11 C11       -79.3235   29.6100  -73.9599 C.ar      11 UNK        -0.0830 
     12 C12       -78.0428   29.5786  -73.3979 C.ar      11 UNK        -0.1021 
     13 C13       -77.8587   29.7131  -72.0180 C.ar      11 UNK        -0.0753 
     14 C14       -78.9761   29.8598  -71.1888 C.ar      11 UNK        -0.0933 
     15 C15       -76.4499   29.7371  -71.4375 C.3       11 UNK         0.0166 
     16 S16       -75.4939   28.2696  -71.9275 S.3       11 UNK        -0.2615 
     17 C17       -73.8371   28.6719  -71.2857 C.3       11 UNK        -0.0865 
     18 CA        -72.9849   29.5429  -72.2485 C.3       10 UNK         0.0862 
     19 C         -71.5605   29.7597  -71.6543 C.2       10 UNK         0.5551 
     20 N         -70.4977   29.2265  -72.2475 N.am      10 UNK        -0.7319 
     21 O         -71.4214   30.4257  -70.6314 O.2       10 UNK        -0.5018 
     22 N         -73.0054   29.0355  -73.6301 N.am      10 UNK        -0.4509 
     23 C         -72.5669   29.7068  -74.7028 C.2       10 UNK         0.4899 
     24 O         -72.1920   30.8800  -74.6669 O.2       10 UNK        -0.4839 
     25 CA        -72.5334   28.9330  -76.0363 C.3       9 UNK         0.0222 
     26 CB        -71.4996   29.5015  -77.0303 C.3       9 UNK        -0.1966 
     27 N         -72.3467   27.4848  -75.8767 N.am      9 UNK        -0.4218 
     28 C         -71.3263   26.8539  -75.2751 C.2       9 UNK         0.5020 
     29 O         -70.3863   27.4269  -74.7213 O.2       9 UNK        -0.5274 
     30 CA        -71.3727   25.3185  -75.2848 C.3       8 UNK         0.0270 
     31 CB        -72.2742   24.7859  -74.1585 C.3       8 UNK        -0.1976 
     32 N         -71.8187   24.7850  -76.5744 N.am      8 UNK        -0.4313 
     33 C         -71.0734   24.7575  -77.6861 C.2       8 UNK         0.5041 
     34 O         -69.9126   25.1659  -77.7405 O.2       8 UNK        -0.5577 
     35 CA        -71.7146   24.1615  -78.9530 C.3       7 UNK         0.0284 
     36 CB        -71.9674   22.6476  -78.7982 C.3       7 UNK        -0.1958 
     37 N         -72.9176   24.8647  -79.4222 N.am      7 UNK        -0.4454 
     38 C         -74.1027   24.9878  -78.8110 C.2       7 UNK         0.5089 
     39 O         -74.3604   24.5196  -77.6990 O.2       7 UNK        -0.5125 
     40 CA        -75.1936   25.7303  -79.5975 C.3       6 UNK         0.0408 
     41 CB        -76.0837   24.7286  -80.3497 C.3       6 UNK        -0.1791 
     42 N         -76.0196   26.5070  -78.6773 N.am      6 UNK        -0.4762 
     43 C         -75.7458   27.7616  -78.2888 C.2       6 UNK         0.5007 
     44 O         -74.8551   28.4471  -78.7917 O.2       6 UNK        -0.5032 
     45 CA        -76.5796   28.3512  -77.1276 C.3       5 UNK         0.0783 
     46 C46       -77.7464   29.2164  -77.6694 C.3       11 UNK        -0.0857 
     47 S47       -78.3374   30.4288  -76.4431 S.3       11 UNK        -0.2512 
     48 C48       -79.5311   29.4549  -75.4641 C.3       11 UNK         0.0225 
     49 N         -77.0577   27.3021  -76.2219 N.am      5 UNK        -0.4615 
     50 C         -76.2770   26.5145  -75.4725 C.2       4 UNK         0.5053 
     51 O         -75.0760   26.7242  -75.3050 O.2       4 UNK        -0.5105 
     52 CA        -76.9210   25.2608  -74.8442 C.3       4 UNK         0.0263 
     53 CB        -76.8173   25.3001  -73.3124 C.3       4 UNK        -0.1981 
     54 N         -78.3193   25.0009  -75.2271 N.am      4 UNK        -0.4224 
     55 C         -78.7455   24.6834  -76.4620 C.2       3 UNK         0.4895 
     56 O         -78.0016   24.6634  -77.4427 O.2       3 UNK        -0.5091 
     57 CA        -80.2390   24.3529  -76.6422 C.3       3 UNK         0.0250 
     58 CB        -80.5043   23.4454  -77.8590 C.3       3 UNK        -0.1996 
     59 N         -80.7773   23.7234  -75.4380 N.am      3 UNK        -0.4254 
     60 C         -81.9299   24.0449  -74.8384 C.2       2 UNK         0.5004 
     61 O         -82.7442   24.8506  -75.2918 O.2       2 UNK        -0.5226 
     62 CA        -82.2053   23.3933  -73.4665 C.3       2 UNK         0.0269 
     63 CB        -81.3758   22.1151  -73.2019 C.3       2 UNK        -0.1926 
     64 N         -82.0275   24.3461  -72.3595 N.am      2 UNK        -0.4687 
     65 C         -80.9491   25.1124  -72.1282 C.2       1 UNK         0.5165 
     66 O         -79.9503   25.1199  -72.8534 O.2       1 UNK        -0.5079 
     67 H67       -76.6585   25.9038  -70.2191 H         1 UNK         0.0900 
     68 H68       -77.1330   26.1646  -68.5377 H         1 UNK         0.0900 
     69 H69       -77.4213   27.4231  -69.7359 H         1 UNK         0.0900 
     70 H70       -79.4017   27.4076  -70.8483 H         1 UNK         0.2959 
     71 H71       -81.4164   25.4710  -70.0687 H         1 UNK         0.1079 
     72 H72       -81.7880   27.6716  -72.1505 H         1 UNK         0.0837 
     73 H73       -83.0038   26.8811  -71.2037 H         1 UNK         0.0837 
     74 H74       -82.3613   30.3188  -71.4292 H         1 UNK         0.0685 
     75 H75       -81.3179   30.8630  -70.1435 H         1 UNK         0.0685 
     76 H76       -81.4231   29.7847  -73.5425 H         1 UNK         0.1434 
     77 H77       -77.1788   29.4557  -74.0366 H         1 UNK         0.1329 
     78 H78       -78.8480   29.9665  -70.1200 H         1 UNK         0.1335 
     79 H79       -75.9409   30.6343  -71.7920 H         1 UNK         0.0680 
     80 H80       -76.4764   29.7981  -70.3486 H         1 UNK         0.0680 
     81 H81       -73.9429   29.1620  -70.3158 H         1 UNK         0.1032 
     82 H82       -73.3294   27.7257  -71.0881 H         1 UNK         0.1032 
     83 H83       -73.4471   30.5313  -72.2798 H         1 UNK         0.0461 
     84 H84       -69.5847   29.3786  -71.8499 H         1 UNK         0.3453 
     85 H85       -70.5920   28.6779  -73.0951 H         1 UNK         0.3453 
     86 H86       -73.3466   28.0928  -73.7559 H         1 UNK         0.2984 
     87 H87       -73.5197   29.0634  -76.4787 H         1 UNK         0.0554 
     88 H88       -71.5175   28.9555  -77.9736 H         1 UNK         0.0847 
     89 H89       -70.4859   29.4511  -76.6314 H         1 UNK         0.0847 
     90 H90       -71.7084   30.5469  -77.2605 H         1 UNK         0.0847 
     91 H91       -73.1362   26.9184  -76.1677 H         1 UNK         0.3141 
     92 H92       -70.3581   24.9591  -75.0992 H         1 UNK         0.0743 
     93 H93       -71.9706   25.1886  -73.1911 H         1 UNK         0.0784 
     94 H94       -73.3198   25.0538  -74.3096 H         1 UNK         0.0784 
     95 H95       -72.2168   23.6996  -74.0888 H         1 UNK         0.0784 
     96 H96       -72.7914   24.4969  -76.6629 H         1 UNK         0.3213 
     97 H97       -70.9803   24.2795  -79.7519 H         1 UNK         0.0855 
     98 H98       -72.7086   22.4274  -78.0296 H         1 UNK         0.0814 
     99 H99       -71.0499   22.1275  -78.5195 H         1 UNK         0.0814 
    100 H100      -72.3163   22.2081  -79.7326 H         1 UNK         0.0814 
    101 H101      -72.8157   25.3130  -80.3229 H         1 UNK         0.3105 
    102 H102      -74.7282   26.3950  -80.3286 H         1 UNK         0.0547 
    103 H103      -76.8766   25.2364  -80.8988 H         1 UNK         0.0837 
    104 H104      -75.5027   24.1555  -81.0733 H         1 UNK         0.0837 
    105 H105      -76.5519   24.0149  -79.6703 H         1 UNK         0.0837 
    106 H106      -76.7212   25.9748  -78.1688 H         1 UNK         0.3020 
    107 H107      -75.9038   28.9943  -76.5600 H         1 UNK         0.1245 
    108 H108      -78.5749   28.5983  -78.0202 H         1 UNK         0.0781 
    109 H109      -77.4243   29.7992  -78.5352 H         1 UNK         0.0781 
    110 H110      -80.5352   29.7745  -75.7472 H         1 UNK         0.0836 
    111 H111      -79.4716   28.3965  -75.7131 H         1 UNK         0.0836 
    112 H112      -78.0276   27.0438  -76.3058 H         1 UNK         0.3022 
    113 H113      -76.3298   24.4126  -75.1958 H         1 UNK         0.0747 
    114 H114      -77.1886   24.3791  -72.8628 H         1 UNK         0.0793 
    115 H115      -77.3910   26.1297  -72.8971 H         1 UNK         0.0793 
    116 H116      -75.7822   25.4217  -72.9908 H         1 UNK         0.0793 
    117 H117      -78.9948   25.0349  -74.4642 H         1 UNK         0.3047 
    118 H118      -80.7381   25.3090  -76.8138 H         1 UNK         0.0822 
    119 H119      -80.1633   23.9145  -78.7829 H         1 UNK         0.0807 
    120 H120      -81.5688   23.2419  -77.9761 H         1 UNK         0.0807 
    121 H121      -79.9877   22.4894  -77.7665 H         1 UNK         0.0807 
    122 H122      -80.1630   23.0734  -74.9670 H         1 UNK         0.2946 
    123 H123      -83.2586   23.1071  -73.4758 H         1 UNK         0.1144 
    124 H124      -81.4949   21.3916  -74.0099 H         1 UNK         0.0793 
    125 H125      -81.7046   21.6232  -72.2863 H         1 UNK         0.0793 
    126 H126      -80.3109   22.3239  -73.0926 H         1 UNK         0.0793 
    127 H127      -82.8189   24.4348  -71.7370 H         1 UNK         0.2896 
@<TRIPOS>BOND
     1    1    2 1    
     2    1   67 1    
     3    1   68 1    
     4    1   69 1    
     5    2    3 2    
     6    2    4 am   BACKBONE|DICT|INTERRES
     7    4    5 1    
     8    4   70 1    
     9    5    6 1    
    10    5   65 1    
    11    5   71 1    
    12    6    7 1    
    13    6   72 1    
    14    6   73 1    
    15    7    8 1    
    16    8    9 1    
    17    8   74 1    
    18    8   75 1    
    19    9   10 ar   
    20    9   14 ar   
    21   10   11 ar   
    22   10   76 1    
    23   11   12 ar   
    24   11   48 1    
    25   12   13 ar   
    26   12   77 1    
    27   13   14 ar   
    28   13   15 1    
    29   14   78 1    
    30   15   16 1    
    31   15   79 1    
    32   15   80 1    
    33   16   17 1    
    34   17   18 1    
    35   17   81 1    
    36   17   82 1    
    37   18   19 1    
    38   18   22 1    
    39   18   83 1    
    40   19   20 am   BACKBONE|DICT|INTERRES
    41   19   21 2    
    42   20   84 1    
    43   20   85 1    
    44   22   23 am   BACKBONE|DICT|INTERRES
    45   22   86 1    
    46   23   24 2    
    47   23   25 1    
    48   25   26 1    
    49   25   27 1    
    50   25   87 1    
    51   26   88 1    
    52   26   89 1    
    53   26   90 1    
    54   27   28 am   BACKBONE|DICT|INTERRES
    55   27   91 1    
    56   28   29 2    
    57   28   30 1    
    58   30   31 1    
    59   30   32 1    
    60   30   92 1    
    61   31   93 1    
    62   31   94 1    
    63   31   95 1    
    64   32   33 am   BACKBONE|DICT|INTERRES
    65   32   96 1    
    66   33   34 2    
    67   33   35 1    
    68   35   36 1    
    69   35   37 1    
    70   35   97 1    
    71   36   98 1    
    72   36   99 1    
    73   36  100 1    
    74   37   38 am   BACKBONE|DICT|INTERRES
    75   37  101 1    
    76   38   39 2    
    77   38   40 1    
    78   40   41 1    
    79   40   42 1    
    80   40  102 1    
    81   41  103 1    
    82   41  104 1    
    83   41  105 1    
    84   42   43 am   BACKBONE|DICT|INTERRES
    85   42  106 1    
    86   43   44 2    
    87   43   45 1    
    88   45   46 1    
    89   45   49 1    
    90   45  107 1    
    91   46   47 1    
    92   46  108 1    
    93   46  109 1    
    94   47   48 1    
    95   48  110 1    
    96   48  111 1    
    97   49   50 am   BACKBONE|DICT|INTERRES
    98   49  112 1    
    99   50   51 2    
   100   50   52 1    
   101   52   53 1    
   102   52   54 1    
   103   52  113 1    
   104   53  114 1    
   105   53  115 1    
   106   53  116 1    
   107   54   55 am   BACKBONE|DICT|INTERRES
   108   54  117 1    
   109   55   56 2    
   110   55   57 1    
   111   57   58 1    
   112   57   59 1    
   113   57  118 1    
   114   58  119 1    
   115   58  120 1    
   116   58  121 1    
   117   59   60 am   BACKBONE|DICT|INTERRES
   118   59  122 1    
   119   60   61 2    
   120   60   62 1    
   121   62   63 1    
   122   62   64 1    
   123   62  123 1    
   124   63  124 1    
   125   63  125 1    
   126   63  126 1    
   127   64   65 am   BACKBONE|DICT|INTERRES
   128   64  127 1    
   129   65   66 2    
@<TRIPOS>SUBSTRUCTURE
     1 UNK         1 GROUP             0       ****    0 ROOT    
