@<TRIPOS>MOLECULE
3R135
127   129    1
SMALL
USER_CHARGES


@<TRIPOS>ATOM
      1 CA        -84.1386   25.2534  -74.5874 C.3       0 UNK        -0.1998 
      2 C         -83.2471   26.4854  -74.6048 C.2       0 UNK         0.4909 
      3 O         -82.9385   27.0039  -75.6783 O.2       0 UNK        -0.5240 
      4 N         -82.8304   26.9635  -73.4255 N.am      1 UNK        -0.4739 
      5 CA        -81.9102   28.0940  -73.2659 C.3       1 UNK         0.0864 
      6 C6        -81.8966   28.6440  -71.8166 C.3       11 UNK        -0.0881 
      7 S7        -81.6001   27.3893  -70.5197 S.3       11 UNK        -0.2682 
      8 C8        -80.2745   28.1622  -69.5390 C.3       11 UNK         0.0289 
      9 C9        -78.9043   27.9747  -70.1741 C.ar      11 UNK        -0.0687 
     10 C10       -78.2296   26.7596  -70.0228 C.ar      11 UNK        -0.0823 
     11 C11       -76.9558   26.5806  -70.5692 C.ar      11 UNK        -0.0830 
     12 C12       -76.3577   27.6293  -71.2738 C.ar      11 UNK        -0.1021 
     13 C13       -77.0260   28.8449  -71.4430 C.ar      11 UNK        -0.0753 
     14 C14       -78.2981   29.0148  -70.8865 C.ar      11 UNK        -0.0933 
     15 C15       -76.3814   29.9594  -72.2520 C.3       11 UNK         0.0166 
     16 S16       -74.9292   30.6600  -71.4143 S.3       11 UNK        -0.2615 
     17 C17       -74.4248   31.9189  -72.6396 C.3       11 UNK        -0.0865 
     18 CA        -73.2254   31.5025  -73.5355 C.3       10 UNK         0.0862 
     19 C         -71.8543   31.4469  -72.8010 C.2       10 UNK         0.5551 
     20 N         -70.9163   30.6080  -73.2282 N.am      10 UNK        -0.7319 
     21 O         -71.6214   32.1875  -71.8486 O.2       10 UNK        -0.5018 
     22 N         -73.5001   30.2861  -74.3149 N.am      10 UNK        -0.4509 
     23 C         -73.9385   30.2512  -75.5772 C.2       10 UNK         0.4899 
     24 O         -74.2983   31.2537  -76.1961 O.2       10 UNK        -0.4839 
     25 CA        -73.9864   28.8707  -76.2727 C.3       9 UNK         0.0222 
     26 CB        -73.7499   28.9822  -77.7925 C.3       9 UNK        -0.1966 
     27 N         -73.1022   27.8397  -75.7062 N.am      9 UNK        -0.4218 
     28 C         -71.7764   27.9035  -75.4969 C.2       9 UNK         0.5020 
     29 O         -71.0921   28.9102  -75.6832 O.2       9 UNK        -0.5274 
     30 CA        -71.1027   26.6339  -74.9602 C.3       8 UNK         0.0270 
     31 CB        -71.4716   26.4087  -73.4830 C.3       8 UNK        -0.1976 
     32 N         -71.4977   25.4673  -75.7496 N.am      8 UNK        -0.4313 
     33 C         -70.7423   24.8755  -76.6851 C.2       8 UNK         0.5041 
     34 O         -69.5869   25.2121  -76.9485 O.2       8 UNK        -0.5577 
     35 CA        -71.3710   23.7008  -77.4618 C.3       7 UNK         0.0284 
     36 CB        -70.9694   22.3608  -76.8242 C.3       7 UNK        -0.1958 
     37 N         -72.8321   23.7755  -77.5450 N.am      7 UNK        -0.4454 
     38 C         -73.5077   24.6853  -78.2602 C.2       7 UNK         0.5089 
     39 O         -72.9694   25.4878  -79.0227 O.2       7 UNK        -0.5125 
     40 CA        -75.0385   24.7298  -78.0839 C.3       6 UNK         0.0408 
     41 CB        -75.7322   24.0456  -79.2722 C.3       6 UNK        -0.1791 
     42 N         -75.5590   24.1620  -76.8308 N.am      6 UNK        -0.4762 
     43 C         -75.2226   24.5506  -75.5903 C.2       6 UNK         0.5007 
     44 O         -74.3084   25.3436  -75.3563 O.2       6 UNK        -0.5032 
     45 CA        -76.0561   23.9806  -74.4274 C.3       5 UNK         0.0783 
     46 C46       -75.7809   24.7407  -73.1057 C.3       11 UNK        -0.0857 
     47 S47       -76.6704   24.0506  -71.6727 S.3       11 UNK        -0.2512 
     48 C48       -76.2246   25.2582  -70.3854 C.3       11 UNK         0.0225 
     49 N         -77.4686   24.0408  -74.8014 N.am      5 UNK        -0.4615 
     50 C         -78.3138   23.0050  -74.8494 C.2       4 UNK         0.5053 
     51 O         -77.9885   21.8432  -74.6045 O.2       4 UNK        -0.5105 
     52 CA        -79.7699   23.3086  -75.2470 C.3       4 UNK         0.0263 
     53 CB        -80.6767   23.3015  -74.0055 C.3       4 UNK        -0.1981 
     54 N         -79.9045   24.5895  -75.9496 N.am      4 UNK        -0.4224 
     55 C         -79.5815   24.7665  -77.2409 C.2       3 UNK         0.4895 
     56 O         -79.2235   23.8491  -77.9798 O.2       3 UNK        -0.5091 
     57 CA        -79.6399   26.1950  -77.8138 C.3       3 UNK         0.0250 
     58 CB        -80.9293   26.4004  -78.6243 C.3       3 UNK        -0.1996 
     59 N         -79.5303   27.2430  -76.7960 N.am      3 UNK        -0.4254 
     60 C         -78.4123   27.5155  -76.1067 C.2       2 UNK         0.5004 
     61 O         -77.3453   26.9325  -76.2838 O.2       2 UNK        -0.5226 
     62 CA        -78.5003   28.5844  -75.0029 C.3       2 UNK         0.0269 
     63 CB        -78.0354   29.9475  -75.5410 C.3       2 UNK        -0.1926 
     64 N         -79.8313   28.7296  -74.4024 N.am      2 UNK        -0.4687 
     65 C         -80.5000   27.7451  -73.7851 C.2       1 UNK         0.5165 
     66 O         -80.0594   26.6000  -73.6617 O.2       1 UNK        -0.5079 
     67 H67       -85.1521   25.5209  -74.8847 H         1 UNK         0.0900 
     68 H68       -83.7641   24.5088  -75.2892 H         1 UNK         0.0900 
     69 H69       -84.1808   24.7967  -73.5987 H         1 UNK         0.0900 
     70 H70       -83.0731   26.4845  -72.5696 H         1 UNK         0.2959 
     71 H71       -82.2925   28.8942  -73.9042 H         1 UNK         0.1079 
     72 H72       -82.8640   29.1012  -71.6026 H         1 UNK         0.0837 
     73 H73       -81.1729   29.4557  -71.7264 H         1 UNK         0.0837 
     74 H74       -80.2718   27.7119  -68.5453 H         1 UNK         0.0685 
     75 H75       -80.4937   29.2203  -69.3872 H         1 UNK         0.0685 
     76 H76       -78.6981   25.9518  -69.4771 H         1 UNK         0.1434 
     77 H77       -75.3708   27.5013  -71.6970 H         1 UNK         0.1329 
     78 H78       -78.8164   29.9558  -71.0080 H         1 UNK         0.1335 
     79 H79       -77.1012   30.7560  -72.4460 H         1 UNK         0.0680 
     80 H80       -76.0759   29.5686  -73.2228 H         1 UNK         0.0680 
     81 H81       -74.1941   32.8416  -72.1043 H         1 UNK         0.1032 
     82 H82       -75.2761   32.1684  -73.2746 H         1 UNK         0.1032 
     83 H83       -73.0803   32.3225  -74.2413 H         1 UNK         0.0461 
     84 H84       -71.0466   30.0659  -74.0759 H         1 UNK         0.3453 
     85 H85       -70.0284   30.5863  -72.7525 H         1 UNK         0.3453 
     86 H86       -73.2242   29.4218  -73.8730 H         1 UNK         0.2984 
     87 H87       -75.0005   28.4976  -76.1254 H         1 UNK         0.0554 
     88 H88       -74.4817   29.6414  -78.2610 H         1 UNK         0.0847 
     89 H89       -73.8386   28.0112  -78.2790 H         1 UNK         0.0847 
     90 H90       -72.7593   29.3796  -78.0160 H         1 UNK         0.0847 
     91 H91       -73.5671   26.9564  -75.4981 H         1 UNK         0.3141 
     92 H92       -70.0218   26.7795  -75.0167 H         1 UNK         0.0743 
     93 H93       -70.9486   25.5433  -73.0758 H         1 UNK         0.0784 
     94 H94       -71.1918   27.2703  -72.8750 H         1 UNK         0.0784 
     95 H95       -72.5411   26.2446  -73.3457 H         1 UNK         0.0784 
     96 H96       -72.4606   25.1607  -75.6407 H         1 UNK         0.3213 
     97 H97       -70.9717   23.7295  -78.4782 H         1 UNK         0.0855 
     98 H98       -71.3507   22.2658  -75.8067 H         1 UNK         0.0814 
     99 H99       -69.8838   22.2632  -76.7750 H         1 UNK         0.0814 
    100 H100      -71.3421   21.5165  -77.4046 H         1 UNK         0.0814 
    101 H101      -73.3614   23.1441  -76.9617 H         1 UNK         0.3105 
    102 H102      -75.3230   25.7842  -78.0907 H         1 UNK         0.0547 
    103 H103      -75.5373   22.9727  -79.2901 H         1 UNK         0.0837 
    104 H104      -75.3826   24.4566  -80.2204 H         1 UNK         0.0837 
    105 H105      -76.8116   24.1919  -79.2401 H         1 UNK         0.0837 
    106 H106      -76.3297   23.5155  -76.9246 H         1 UNK         0.3020 
    107 H107      -75.7374   22.9439  -74.2990 H         1 UNK         0.1245 
    108 H108      -76.0637   25.7868  -73.2265 H         1 UNK         0.0781 
    109 H109      -74.7159   24.7291  -72.8658 H         1 UNK         0.0781 
    110 H110      -75.1445   25.4135  -70.3846 H         1 UNK         0.0836 
    111 H111      -76.4689   24.8365  -69.4093 H         1 UNK         0.0836 
    112 H112      -77.8062   24.9573  -75.0650 H         1 UNK         0.3022 
    113 H113      -80.1041   22.5086  -75.9112 H         1 UNK         0.0747 
    114 H114      -81.7144   23.5025  -74.2680 H         1 UNK         0.0793 
    115 H115      -80.6507   22.3288  -73.5126 H         1 UNK         0.0793 
    116 H116      -80.3639   24.0427  -73.2694 H         1 UNK         0.0793 
    117 H117      -80.1535   25.3927  -75.3814 H         1 UNK         0.3047 
    118 H118      -78.7919   26.3021  -78.4941 H         1 UNK         0.0822 
    119 H119      -80.9551   27.3864  -79.0886 H         1 UNK         0.0807 
    120 H120      -81.8189   26.2973  -78.0026 H         1 UNK         0.0807 
    121 H121      -81.0067   25.6642  -79.4257 H         1 UNK         0.0807 
    122 H122      -80.3751   27.7492  -76.5693 H         1 UNK         0.2946 
    123 H123      -77.8207   28.2653  -74.2106 H         1 UNK         0.1144 
    124 H124      -78.0036   30.7006  -74.7542 H         1 UNK         0.0793 
    125 H125      -78.6945   30.3150  -76.3285 H         1 UNK         0.0793 
    126 H126      -77.0329   29.8816  -75.9645 H         1 UNK         0.0793 
    127 H127      -80.2604   29.6410  -74.4786 H         1 UNK         0.2896 
@<TRIPOS>BOND
     1    1    2 1    
     2    1   67 1    
     3    1   68 1    
     4    1   69 1    
     5    2    3 2    
     6    2    4 am   BACKBONE|DICT|INTERRES
     7    4    5 1    
     8    4   70 1    
     9    5    6 1    
    10    5   65 1    
    11    5   71 1    
    12    6    7 1    
    13    6   72 1    
    14    6   73 1    
    15    7    8 1    
    16    8    9 1    
    17    8   74 1    
    18    8   75 1    
    19    9   10 ar   
    20    9   14 ar   
    21   10   11 ar   
    22   10   76 1    
    23   11   12 ar   
    24   11   48 1    
    25   12   13 ar   
    26   12   77 1    
    27   13   14 ar   
    28   13   15 1    
    29   14   78 1    
    30   15   16 1    
    31   15   79 1    
    32   15   80 1    
    33   16   17 1    
    34   17   18 1    
    35   17   81 1    
    36   17   82 1    
    37   18   19 1    
    38   18   22 1    
    39   18   83 1    
    40   19   20 am   BACKBONE|DICT|INTERRES
    41   19   21 2    
    42   20   84 1    
    43   20   85 1    
    44   22   23 am   BACKBONE|DICT|INTERRES
    45   22   86 1    
    46   23   24 2    
    47   23   25 1    
    48   25   26 1    
    49   25   27 1    
    50   25   87 1    
    51   26   88 1    
    52   26   89 1    
    53   26   90 1    
    54   27   28 am   BACKBONE|DICT|INTERRES
    55   27   91 1    
    56   28   29 2    
    57   28   30 1    
    58   30   31 1    
    59   30   32 1    
    60   30   92 1    
    61   31   93 1    
    62   31   94 1    
    63   31   95 1    
    64   32   33 am   BACKBONE|DICT|INTERRES
    65   32   96 1    
    66   33   34 2    
    67   33   35 1    
    68   35   36 1    
    69   35   37 1    
    70   35   97 1    
    71   36   98 1    
    72   36   99 1    
    73   36  100 1    
    74   37   38 am   BACKBONE|DICT|INTERRES
    75   37  101 1    
    76   38   39 2    
    77   38   40 1    
    78   40   41 1    
    79   40   42 1    
    80   40  102 1    
    81   41  103 1    
    82   41  104 1    
    83   41  105 1    
    84   42   43 am   BACKBONE|DICT|INTERRES
    85   42  106 1    
    86   43   44 2    
    87   43   45 1    
    88   45   46 1    
    89   45   49 1    
    90   45  107 1    
    91   46   47 1    
    92   46  108 1    
    93   46  109 1    
    94   47   48 1    
    95   48  110 1    
    96   48  111 1    
    97   49   50 am   BACKBONE|DICT|INTERRES
    98   49  112 1    
    99   50   51 2    
   100   50   52 1    
   101   52   53 1    
   102   52   54 1    
   103   52  113 1    
   104   53  114 1    
   105   53  115 1    
   106   53  116 1    
   107   54   55 am   BACKBONE|DICT|INTERRES
   108   54  117 1    
   109   55   56 2    
   110   55   57 1    
   111   57   58 1    
   112   57   59 1    
   113   57  118 1    
   114   58  119 1    
   115   58  120 1    
   116   58  121 1    
   117   59   60 am   BACKBONE|DICT|INTERRES
   118   59  122 1    
   119   60   61 2    
   120   60   62 1    
   121   62   63 1    
   122   62   64 1    
   123   62  123 1    
   124   63  124 1    
   125   63  125 1    
   126   63  126 1    
   127   64   65 am   BACKBONE|DICT|INTERRES
   128   64  127 1    
   129   65   66 2    
@<TRIPOS>SUBSTRUCTURE
     1 UNK         1 GROUP             0       ****    0 ROOT    
