@<TRIPOS>MOLECULE
3R135
127   129    1
SMALL
USER_CHARGES


@<TRIPOS>ATOM
      1 CA        -81.8128   30.0009  -74.9658 C.3       0 UNK        -0.1998 
      2 C         -80.8874   30.5556  -76.0463 C.2       0 UNK         0.4909 
      3 O         -81.2456   31.5448  -76.6833 O.2       0 UNK        -0.5240 
      4 N         -79.6977   29.9889  -76.2970 N.am      1 UNK        -0.4739 
      5 CA        -79.0975   28.7748  -75.7202 C.3       1 UNK         0.0864 
      6 C6        -78.8645   28.8203  -74.1798 C.3       11 UNK        -0.0881 
      7 S7        -78.0540   30.3561  -73.6104 S.3       11 UNK        -0.2682 
      8 C8        -77.9658   30.0718  -71.8142 C.3       11 UNK         0.0289 
      9 C9        -77.0102   28.9389  -71.4718 C.ar      11 UNK        -0.0687 
     10 C10       -77.5024   27.6675  -71.1645 C.ar      11 UNK        -0.0823 
     11 C11       -76.6262   26.6111  -70.8946 C.ar      11 UNK        -0.0830 
     12 C12       -75.2465   26.8413  -70.9096 C.ar      11 UNK        -0.1021 
     13 C13       -74.7447   28.1154  -71.1912 C.ar      11 UNK        -0.0753 
     14 C14       -75.6307   29.1598  -71.4722 C.ar      11 UNK        -0.0933 
     15 C15       -73.2479   28.3771  -71.1903 C.3       11 UNK         0.0166 
     16 S16       -72.6238   28.5499  -72.8877 S.3       11 UNK        -0.2615 
     17 C17       -71.0836   29.4920  -72.6092 C.3       11 UNK        -0.0865 
     18 CA        -71.3173   31.0036  -72.3286 C.3       10 UNK         0.0862 
     19 C         -69.9682   31.7638  -72.1767 C.2       10 UNK         0.5551 
     20 N         -69.6837   32.7825  -72.9788 N.am      10 UNK        -0.7319 
     21 O         -69.1679   31.4252  -71.3082 O.2       10 UNK        -0.5018 
     22 N         -72.2579   31.6004  -73.2892 N.am      10 UNK        -0.4509 
     23 C         -73.0423   32.6574  -73.0615 C.2       10 UNK         0.4899 
     24 O         -73.0212   33.3122  -72.0193 O.2       10 UNK        -0.4839 
     25 CA        -74.0457   33.0428  -74.1657 C.3       9 UNK         0.0222 
     26 CB        -73.3930   33.9760  -75.2044 C.3       9 UNK        -0.1966 
     27 N         -74.7292   31.9070  -74.8087 N.am      9 UNK        -0.4218 
     28 C         -74.2152   30.9514  -75.5960 C.2       9 UNK         0.5020 
     29 O         -73.0246   30.8726  -75.9137 O.2       9 UNK        -0.5274 
     30 CA        -75.2040   29.9091  -76.1228 C.3       8 UNK         0.0270 
     31 CB        -75.9661   30.4415  -77.3500 C.3       8 UNK        -0.1976 
     32 N         -74.4660   28.7048  -76.4847 N.am      8 UNK        -0.4313 
     33 C         -74.9233   27.4585  -76.3471 C.2       8 UNK         0.5041 
     34 O         -76.0555   27.1780  -75.9398 O.2       8 UNK        -0.5577 
     35 CA        -73.9578   26.3304  -76.7290 C.3       7 UNK         0.0284 
     36 CB        -72.8320   26.1777  -75.6883 C.3       7 UNK        -0.1958 
     37 N         -74.7412   25.1056  -76.8014 N.am      7 UNK        -0.4454 
     38 C         -74.4013   23.9551  -77.3876 C.2       7 UNK         0.5089 
     39 O         -73.3409   23.7792  -77.9905 O.2       7 UNK        -0.5125 
     40 CA        -75.4356   22.8166  -77.2770 C.3       6 UNK         0.0408 
     41 CB        -74.8229   21.4182  -77.4993 C.3       6 UNK        -0.1791 
     42 N         -76.2016   22.8651  -76.0245 N.am      6 UNK        -0.4762 
     43 C         -75.7331   22.7365  -74.7711 C.2       6 UNK         0.5007 
     44 O         -74.5539   22.5250  -74.4870 O.2       6 UNK        -0.5032 
     45 CA        -76.7727   22.8611  -73.6428 C.3       5 UNK         0.0783 
     46 C46       -76.9866   24.3496  -73.2703 C.3       11 UNK        -0.0857 
     47 S47       -78.2041   24.5639  -71.9286 S.3       11 UNK        -0.2512 
     48 C48       -77.1716   25.2237  -70.5800 C.3       11 UNK         0.0225 
     49 N         -78.0170   22.1904  -74.0314 N.am      5 UNK        -0.4615 
     50 C         -78.2187   20.8674  -73.9643 C.2       4 UNK         0.5053 
     51 O         -77.4116   20.0765  -73.4754 O.2       4 UNK        -0.5105 
     52 CA        -79.5404   20.3286  -74.5429 C.3       4 UNK         0.0263 
     53 CB        -80.6148   20.2571  -73.4457 C.3       4 UNK        -0.1981 
     54 N         -80.0433   21.1328  -75.6589 N.am      4 UNK        -0.4224 
     55 C         -79.4755   21.2019  -76.8726 C.2       3 UNK         0.4895 
     56 O         -78.5268   20.5030  -77.2272 O.2       3 UNK        -0.5091 
     57 CA        -80.0409   22.2539  -77.8466 C.3       3 UNK         0.0250 
     58 CB        -81.0617   21.6118  -78.7997 C.3       3 UNK        -0.1996 
     59 N         -80.6577   23.4061  -77.1754 N.am      3 UNK        -0.4254 
     60 C         -79.9976   24.2743  -76.3963 C.2       2 UNK         0.5004 
     61 O         -78.7874   24.2031  -76.1712 O.2       2 UNK        -0.5226 
     62 CA        -80.8530   25.3255  -75.6740 C.3       2 UNK         0.0269 
     63 CB        -81.4178   24.7402  -74.3688 C.3       2 UNK        -0.1926 
     64 N         -80.0886   26.5327  -75.3544 N.am      2 UNK        -0.4687 
     65 C         -79.8336   27.5134  -76.2309 C.2       1 UNK         0.5165 
     66 O         -80.1937   27.4677  -77.4101 O.2       1 UNK        -0.5079 
     67 H67       -81.4701   30.3129  -73.9799 H         1 UNK         0.0900 
     68 H68       -82.8221   30.3893  -75.1003 H         1 UNK         0.0900 
     69 H69       -81.8824   28.9156  -74.9909 H         1 UNK         0.0900 
     70 H70       -79.1472   30.3977  -77.0378 H         1 UNK         0.2959 
     71 H71       -78.1111   28.7103  -76.1769 H         1 UNK         0.1079 
     72 H72       -78.2199   27.9870  -73.8932 H         1 UNK         0.0837 
     73 H73       -79.7936   28.6940  -73.6239 H         1 UNK         0.0837 
     74 H74       -78.9659   29.8678  -71.4284 H         1 UNK         0.0685 
     75 H75       -77.6316   30.9892  -71.3277 H         1 UNK         0.0685 
     76 H76       -78.5693   27.4907  -71.1576 H         1 UNK         0.1434 
     77 H77       -74.5617   26.0310  -70.6996 H         1 UNK         0.1329 
     78 H78       -75.2434   30.1419  -71.7078 H         1 UNK         0.1335 
     79 H79       -72.7080   27.5730  -70.6881 H         1 UNK         0.0680 
     80 H80       -73.0513   29.2853  -70.6204 H         1 UNK         0.0680 
     81 H81       -70.4607   29.3687  -73.4971 H         1 UNK         0.1032 
     82 H82       -70.5320   29.0291  -71.7886 H         1 UNK         0.1032 
     83 H83       -71.7874   31.0750  -71.3467 H         1 UNK         0.0461 
     84 H84       -68.8091   33.2715  -72.8703 H         1 UNK         0.3453 
     85 H85       -70.3387   33.0644  -73.6902 H         1 UNK         0.3453 
     86 H86       -72.3390   31.1406  -74.1922 H         1 UNK         0.2984 
     87 H87       -74.8376   33.6114  -73.6754 H         1 UNK         0.0554 
     88 H88       -72.9827   34.8652  -74.7238 H         1 UNK         0.0847 
     89 H89       -74.1184   34.3144  -75.9442 H         1 UNK         0.0847 
     90 H90       -72.5743   33.4907  -75.7363 H         1 UNK         0.0847 
     91 H91       -75.7160   31.8404  -74.5956 H         1 UNK         0.3141 
     92 H92       -75.9042   29.6708  -75.3220 H         1 UNK         0.0743 
     93 H93       -76.5864   31.2984  -77.0844 H         1 UNK         0.0784 
     94 H94       -76.6227   29.6826  -77.7746 H         1 UNK         0.0784 
     95 H95       -75.2826   30.7631  -78.1371 H         1 UNK         0.0784 
     96 H96       -73.5012   28.8721  -76.7442 H         1 UNK         0.3213 
     97 H97       -73.5355   26.5450  -77.7128 H         1 UNK         0.0855 
     98 H98       -73.2325   25.9775  -74.6934 H         1 UNK         0.0814 
     99 H99       -72.2297   27.0843  -75.6221 H         1 UNK         0.0814 
    100 H100      -72.1559   25.3624  -75.9454 H         1 UNK         0.0814 
    101 H101      -75.6572   25.1979  -76.3750 H         1 UNK         0.3105 
    102 H102      -76.1593   22.9873  -78.0752 H         1 UNK         0.0547 
    103 H103      -75.5801   20.6381  -77.4190 H         1 UNK         0.0837 
    104 H104      -74.0361   21.1996  -76.7770 H         1 UNK         0.0837 
    105 H105      -74.3813   21.3389  -78.4933 H         1 UNK         0.0837 
    106 H106      -77.1817   23.1172  -76.1270 H         1 UNK         0.3020 
    107 H107      -76.3629   22.3522  -72.7669 H         1 UNK         0.1245 
    108 H108      -77.3336   24.9262  -74.1293 H         1 UNK         0.0781 
    109 H109      -76.0380   24.8032  -72.9774 H         1 UNK         0.0781 
    110 H110      -76.3641   24.5198  -70.3723 H         1 UNK         0.0836 
    111 H111      -77.7722   25.2787  -69.6712 H         1 UNK         0.0836 
    112 H112      -78.7092   22.7754  -74.4774 H         1 UNK         0.3022 
    113 H113      -79.3541   19.3165  -74.9090 H         1 UNK         0.0747 
    114 H114      -81.5376   19.8144  -73.8212 H         1 UNK         0.0793 
    115 H115      -80.2780   19.6405  -72.6110 H         1 UNK         0.0793 
    116 H116      -80.8521   21.2441  -73.0459 H         1 UNK         0.0793 
    117 H117      -80.8405   21.7224  -75.4722 H         1 UNK         0.3047 
    118 H118      -79.2035   22.6258  -78.4412 H         1 UNK         0.0822 
    119 H119      -81.4043   22.3222  -79.5523 H         1 UNK         0.0807 
    120 H120      -81.9363   21.2386  -78.2653 H         1 UNK         0.0807 
    121 H121      -80.6207   20.7676  -79.3320 H         1 UNK         0.0807 
    122 H122      -81.6533   23.5215  -77.3037 H         1 UNK         0.2946 
    123 H123      -81.6882   25.6011  -76.3228 H         1 UNK         0.1144 
    124 H124      -82.0314   25.4700  -73.8401 H         1 UNK         0.0793 
    125 H125      -80.6259   24.4180  -73.6922 H         1 UNK         0.0793 
    126 H126      -82.0507   23.8739  -74.5651 H         1 UNK         0.0793 
    127 H127      -79.7151   26.5940  -74.4190 H         1 UNK         0.2896 
@<TRIPOS>BOND
     1    1    2 1    
     2    1   67 1    
     3    1   68 1    
     4    1   69 1    
     5    2    3 2    
     6    2    4 am   BACKBONE|DICT|INTERRES
     7    4    5 1    
     8    4   70 1    
     9    5    6 1    
    10    5   65 1    
    11    5   71 1    
    12    6    7 1    
    13    6   72 1    
    14    6   73 1    
    15    7    8 1    
    16    8    9 1    
    17    8   74 1    
    18    8   75 1    
    19    9   10 ar   
    20    9   14 ar   
    21   10   11 ar   
    22   10   76 1    
    23   11   12 ar   
    24   11   48 1    
    25   12   13 ar   
    26   12   77 1    
    27   13   14 ar   
    28   13   15 1    
    29   14   78 1    
    30   15   16 1    
    31   15   79 1    
    32   15   80 1    
    33   16   17 1    
    34   17   18 1    
    35   17   81 1    
    36   17   82 1    
    37   18   19 1    
    38   18   22 1    
    39   18   83 1    
    40   19   20 am   BACKBONE|DICT|INTERRES
    41   19   21 2    
    42   20   84 1    
    43   20   85 1    
    44   22   23 am   BACKBONE|DICT|INTERRES
    45   22   86 1    
    46   23   24 2    
    47   23   25 1    
    48   25   26 1    
    49   25   27 1    
    50   25   87 1    
    51   26   88 1    
    52   26   89 1    
    53   26   90 1    
    54   27   28 am   BACKBONE|DICT|INTERRES
    55   27   91 1    
    56   28   29 2    
    57   28   30 1    
    58   30   31 1    
    59   30   32 1    
    60   30   92 1    
    61   31   93 1    
    62   31   94 1    
    63   31   95 1    
    64   32   33 am   BACKBONE|DICT|INTERRES
    65   32   96 1    
    66   33   34 2    
    67   33   35 1    
    68   35   36 1    
    69   35   37 1    
    70   35   97 1    
    71   36   98 1    
    72   36   99 1    
    73   36  100 1    
    74   37   38 am   BACKBONE|DICT|INTERRES
    75   37  101 1    
    76   38   39 2    
    77   38   40 1    
    78   40   41 1    
    79   40   42 1    
    80   40  102 1    
    81   41  103 1    
    82   41  104 1    
    83   41  105 1    
    84   42   43 am   BACKBONE|DICT|INTERRES
    85   42  106 1    
    86   43   44 2    
    87   43   45 1    
    88   45   46 1    
    89   45   49 1    
    90   45  107 1    
    91   46   47 1    
    92   46  108 1    
    93   46  109 1    
    94   47   48 1    
    95   48  110 1    
    96   48  111 1    
    97   49   50 am   BACKBONE|DICT|INTERRES
    98   49  112 1    
    99   50   51 2    
   100   50   52 1    
   101   52   53 1    
   102   52   54 1    
   103   52  113 1    
   104   53  114 1    
   105   53  115 1    
   106   53  116 1    
   107   54   55 am   BACKBONE|DICT|INTERRES
   108   54  117 1    
   109   55   56 2    
   110   55   57 1    
   111   57   58 1    
   112   57   59 1    
   113   57  118 1    
   114   58  119 1    
   115   58  120 1    
   116   58  121 1    
   117   59   60 am   BACKBONE|DICT|INTERRES
   118   59  122 1    
   119   60   61 2    
   120   60   62 1    
   121   62   63 1    
   122   62   64 1    
   123   62  123 1    
   124   63  124 1    
   125   63  125 1    
   126   63  126 1    
   127   64   65 am   BACKBONE|DICT|INTERRES
   128   64  127 1    
   129   65   66 2    
@<TRIPOS>SUBSTRUCTURE
     1 UNK         1 GROUP             0       ****    0 ROOT    
