@<TRIPOS>MOLECULE
3R135
127   129    1
SMALL
USER_CHARGES


@<TRIPOS>ATOM
      1 CA        -84.7860   27.2694  -70.7219 C.3       0 UNK        -0.1998 
      2 C         -84.5333   27.3371  -72.2204 C.2       0 UNK         0.4909 
      3 O         -85.2407   26.6878  -72.9912 O.2       0 UNK        -0.5240 
      4 N         -83.5310   28.1208  -72.6386 N.am      1 UNK        -0.4739 
      5 CA        -83.1122   28.2869  -74.0370 C.3       1 UNK         0.0864 
      6 C6        -82.2291   29.5477  -74.2391 C.3       11 UNK        -0.0881 
      7 S7        -80.8910   29.7374  -73.0082 S.3       11 UNK        -0.2682 
      8 C8        -79.4500   29.1704  -73.9567 C.3       11 UNK         0.0289 
      9 C9        -78.2338   29.0290  -73.0564 C.ar      11 UNK        -0.0687 
     10 C10       -78.1105   27.9034  -72.2375 C.ar      11 UNK        -0.0823 
     11 C11       -77.0203   27.7699  -71.3747 C.ar      11 UNK        -0.0830 
     12 C12       -76.0390   28.7632  -71.3577 C.ar      11 UNK        -0.1021 
     13 C13       -76.1311   29.8867  -72.1863 C.ar      11 UNK        -0.0753 
     14 C14       -77.2456   30.0199  -73.0260 C.ar      11 UNK        -0.0933 
     15 C15       -75.0222   30.9366  -72.0867 C.3       11 UNK         0.0166 
     16 S16       -74.8497   32.1221  -73.4696 S.3       11 UNK        -0.2615 
     17 C17       -74.5700   31.0776  -74.9459 C.3       11 UNK        -0.0865 
     18 CA        -73.1019   30.7580  -75.3772 C.3       10 UNK         0.0862 
     19 C         -72.1048   31.9515  -75.5075 C.2       10 UNK         0.5551 
     20 N         -72.5830   33.1845  -75.6070 N.am      10 UNK        -0.7319 
     21 O         -70.8940   31.7612  -75.6077 O.2       10 UNK        -0.5018 
     22 N         -72.5807   29.5426  -74.7282 N.am      10 UNK        -0.4509 
     23 C         -71.9558   29.4510  -73.5470 C.2       10 UNK         0.4899 
     24 O         -71.6519   30.4165  -72.8459 O.2       10 UNK        -0.4839 
     25 CA        -71.6429   28.0419  -73.0139 C.3       9 UNK         0.0222 
     26 CB        -72.6361   27.6664  -71.9023 C.3       9 UNK        -0.1966 
     27 N         -71.6714   26.9830  -74.0260 N.am      9 UNK        -0.4218 
     28 C         -70.6140   26.6066  -74.7571 C.2       9 UNK         0.5020 
     29 O         -69.5433   27.2151  -74.7763 O.2       9 UNK        -0.5274 
     30 CA        -70.7545   25.3121  -75.5727 C.3       8 UNK         0.0270 
     31 CB        -70.7103   24.0842  -74.6465 C.3       8 UNK        -0.1976 
     32 N         -71.9988   25.2898  -76.3401 N.am      8 UNK        -0.4313 
     33 C         -72.0781   25.4254  -77.6710 C.2       8 UNK         0.5041 
     34 O         -71.0974   25.5357  -78.4089 O.2       8 UNK        -0.5577 
     35 CA        -73.4846   25.4435  -78.3037 C.3       7 UNK         0.0284 
     36 CB        -73.8388   24.0516  -78.8524 C.3       7 UNK        -0.1958 
     37 N         -74.5527   25.8857  -77.4031 N.am      7 UNK        -0.4454 
     38 C         -74.5992   27.0697  -76.7785 C.2       7 UNK         0.5089 
     39 O         -73.7609   27.9563  -76.9271 O.2       7 UNK        -0.5125 
     40 CA        -75.7371   27.2796  -75.7680 C.3       6 UNK         0.0408 
     41 CB        -76.9646   27.8615  -76.4808 C.3       6 UNK        -0.1791 
     42 N         -76.1110   26.0740  -75.0232 N.am      6 UNK        -0.4762 
     43 C         -75.2726   25.3337  -74.2796 C.2       6 UNK         0.5007 
     44 O         -74.0599   25.5412  -74.2002 O.2       6 UNK        -0.5032 
     45 CA        -75.8817   24.1203  -73.5550 C.3       5 UNK         0.0783 
     46 C46       -76.7286   24.5188  -72.3240 C.3       11 UNK        -0.0857 
     47 S47       -75.7606   25.3100  -70.9966 S.3       11 UNK        -0.2512 
     48 C48       -76.9239   26.5869  -70.4197 C.3       11 UNK         0.0225 
     49 N         -76.6682   23.3342  -74.5035 N.am      5 UNK        -0.4615 
     50 C         -76.1470   22.5010  -75.4133 C.2       4 UNK         0.5053 
     51 O         -74.9531   22.2080  -75.4708 O.2       4 UNK        -0.5105 
     52 CA        -77.1200   21.9091  -76.4485 C.3       4 UNK         0.0263 
     53 CB        -77.6700   20.5597  -75.9597 C.3       4 UNK        -0.1981 
     54 N         -78.2376   22.8033  -76.7677 N.am      4 UNK        -0.4224 
     55 C         -78.1119   23.9858  -77.3879 C.2       3 UNK         0.4895 
     56 O         -77.0406   24.4372  -77.7910 O.2       3 UNK        -0.5091 
     57 CA        -79.3908   24.8244  -77.5501 C.3       3 UNK         0.0250 
     58 CB        -80.1202   24.4466  -78.8488 C.3       3 UNK        -0.1996 
     59 N         -80.3187   24.7229  -76.4183 N.am      3 UNK        -0.4254 
     60 C         -80.0394   25.0845  -75.1582 C.2       2 UNK         0.5004 
     61 O         -78.9397   25.5053  -74.7935 O.2       2 UNK        -0.5226 
     62 CA        -81.1737   24.9342  -74.1291 C.3       2 UNK         0.0269 
     63 CB        -80.6674   24.2611  -72.8412 C.3       2 UNK        -0.1926 
     64 N         -81.7958   26.2155  -73.7847 N.am      2 UNK        -0.4687 
     65 C         -82.4627   27.0167  -74.6303 C.2       1 UNK         0.5165 
     66 O         -82.6106   26.7733  -75.8287 O.2       1 UNK        -0.5079 
     67 H67       -84.0917   27.8962  -70.1626 H         1 UNK         0.0900 
     68 H68       -84.6770   26.2442  -70.3692 H         1 UNK         0.0900 
     69 H69       -85.7991   27.6017  -70.4969 H         1 UNK         0.0900 
     70 H70       -82.9820   28.6386  -71.9656 H         1 UNK         0.2959 
     71 H71       -84.0226   28.4436  -74.6208 H         1 UNK         0.1079 
     72 H72       -81.8193   29.5873  -75.2506 H         1 UNK         0.0837 
     73 H73       -82.8608   30.4334  -74.1547 H         1 UNK         0.0837 
     74 H74       -79.6759   28.2078  -74.4162 H         1 UNK         0.0685 
     75 H75       -79.2505   29.8688  -74.7709 H         1 UNK         0.0685 
     76 H76       -78.8819   27.1464  -72.2579 H         1 UNK         0.1434 
     77 H77       -75.2012   28.6639  -70.6811 H         1 UNK         0.1329 
     78 H78       -77.3544   30.8947  -73.6509 H         1 UNK         0.1335 
     79 H79       -75.1948   31.5154  -71.1787 H         1 UNK         0.0680 
     80 H80       -74.0677   30.4368  -71.9395 H         1 UNK         0.0680 
     81 H81       -75.0669   31.5855  -75.7739 H         1 UNK         0.1032 
     82 H82       -75.1286   30.1530  -74.8291 H         1 UNK         0.1032 
     83 H83       -73.1871   30.4409  -76.4165 H         1 UNK         0.0461 
     84 H84       -73.5700   33.3601  -75.5017 H         1 UNK         0.3453 
     85 H85       -71.9427   33.9540  -75.7239 H         1 UNK         0.3453 
     86 H86       -72.7413   28.6925  -75.2548 H         1 UNK         0.2984 
     87 H87       -70.6466   28.0799  -72.5681 H         1 UNK         0.0554 
     88 H88       -72.3757   26.7138  -71.4406 H         1 UNK         0.0847 
     89 H89       -73.6515   27.5792  -72.2900 H         1 UNK         0.0847 
     90 H90       -72.6470   28.4166  -71.1106 H         1 UNK         0.0847 
     91 H91       -72.5259   26.4285  -74.0701 H         1 UNK         0.3141 
     92 H92       -69.8930   25.2520  -76.2413 H         1 UNK         0.0743 
     93 H93       -71.5545   24.0630  -73.9558 H         1 UNK         0.0784 
     94 H94       -70.7278   23.1577  -75.2208 H         1 UNK         0.0784 
     95 H95       -69.7977   24.0778  -74.0489 H         1 UNK         0.0784 
     96 H96       -72.8606   25.2332  -75.8073 H         1 UNK         0.3213 
     97 H97       -73.4528   26.1457  -79.1392 H         1 UNK         0.0855 
     98 H98       -73.9368   23.3173  -78.0515 H         1 UNK         0.0814 
     99 H99       -73.0688   23.6910  -79.5358 H         1 UNK         0.0814 
    100 H100      -74.7780   24.0704  -79.4057 H         1 UNK         0.0814 
    101 H101      -75.3393   25.2527  -77.2814 H         1 UNK         0.3105 
    102 H102      -75.3953   27.9932  -75.0194 H         1 UNK         0.0547 
    103 H103      -76.7558   28.8639  -76.8562 H         1 UNK         0.0837 
    104 H104      -77.2593   27.2511  -77.3339 H         1 UNK         0.0837 
    105 H105      -77.8188   27.9330  -75.8127 H         1 UNK         0.0837 
    106 H106      -77.1007   25.8360  -75.0159 H         1 UNK         0.3020 
    107 H107      -75.0514   23.5027  -73.2035 H         1 UNK         0.1245 
    108 H108      -77.1986   23.6314  -71.8974 H         1 UNK         0.0781 
    109 H109      -77.5464   25.1725  -72.6225 H         1 UNK         0.0781 
    110 H110      -76.5927   26.9419  -69.4427 H         1 UNK         0.0836 
    111 H111      -77.9056   26.1388  -70.2575 H         1 UNK         0.0836 
    112 H112      -77.6504   23.5622  -74.5636 H         1 UNK         0.3022 
    113 H113      -76.5553   21.7377  -77.3677 H         1 UNK         0.0747 
    114 H114      -78.2972   20.0887  -76.7168 H         1 UNK         0.0793 
    115 H115      -76.8579   19.8657  -75.7375 H         1 UNK         0.0793 
    116 H116      -78.2630   20.6689  -75.0507 H         1 UNK         0.0793 
    117 H117      -79.1592   22.5086  -76.4792 H         1 UNK         0.3047 
    118 H118      -79.0899   25.8700  -77.6262 H         1 UNK         0.0822 
    119 H119      -80.9726   25.1019  -79.0299 H         1 UNK         0.0807 
    120 H120      -80.4847   23.4188  -78.8257 H         1 UNK         0.0807 
    121 H121      -79.4560   24.5379  -79.7097 H         1 UNK         0.0807 
    122 H122      -81.2599   24.4274  -76.6363 H         1 UNK         0.2946 
    123 H123      -81.9470   24.2929  -74.5579 H         1 UNK         0.1144 
    124 H124      -81.4901   24.0408  -72.1608 H         1 UNK         0.0793 
    125 H125      -79.9537   24.8890  -72.3076 H         1 UNK         0.0793 
    126 H126      -80.1695   23.3157  -73.0612 H         1 UNK         0.0793 
    127 H127      -81.7260   26.5091  -72.8217 H         1 UNK         0.2896 
@<TRIPOS>BOND
     1    1    2 1    
     2    1   67 1    
     3    1   68 1    
     4    1   69 1    
     5    2    3 2    
     6    2    4 am   BACKBONE|DICT|INTERRES
     7    4    5 1    
     8    4   70 1    
     9    5    6 1    
    10    5   65 1    
    11    5   71 1    
    12    6    7 1    
    13    6   72 1    
    14    6   73 1    
    15    7    8 1    
    16    8    9 1    
    17    8   74 1    
    18    8   75 1    
    19    9   10 ar   
    20    9   14 ar   
    21   10   11 ar   
    22   10   76 1    
    23   11   12 ar   
    24   11   48 1    
    25   12   13 ar   
    26   12   77 1    
    27   13   14 ar   
    28   13   15 1    
    29   14   78 1    
    30   15   16 1    
    31   15   79 1    
    32   15   80 1    
    33   16   17 1    
    34   17   18 1    
    35   17   81 1    
    36   17   82 1    
    37   18   19 1    
    38   18   22 1    
    39   18   83 1    
    40   19   20 am   BACKBONE|DICT|INTERRES
    41   19   21 2    
    42   20   84 1    
    43   20   85 1    
    44   22   23 am   BACKBONE|DICT|INTERRES
    45   22   86 1    
    46   23   24 2    
    47   23   25 1    
    48   25   26 1    
    49   25   27 1    
    50   25   87 1    
    51   26   88 1    
    52   26   89 1    
    53   26   90 1    
    54   27   28 am   BACKBONE|DICT|INTERRES
    55   27   91 1    
    56   28   29 2    
    57   28   30 1    
    58   30   31 1    
    59   30   32 1    
    60   30   92 1    
    61   31   93 1    
    62   31   94 1    
    63   31   95 1    
    64   32   33 am   BACKBONE|DICT|INTERRES
    65   32   96 1    
    66   33   34 2    
    67   33   35 1    
    68   35   36 1    
    69   35   37 1    
    70   35   97 1    
    71   36   98 1    
    72   36   99 1    
    73   36  100 1    
    74   37   38 am   BACKBONE|DICT|INTERRES
    75   37  101 1    
    76   38   39 2    
    77   38   40 1    
    78   40   41 1    
    79   40   42 1    
    80   40  102 1    
    81   41  103 1    
    82   41  104 1    
    83   41  105 1    
    84   42   43 am   BACKBONE|DICT|INTERRES
    85   42  106 1    
    86   43   44 2    
    87   43   45 1    
    88   45   46 1    
    89   45   49 1    
    90   45  107 1    
    91   46   47 1    
    92   46  108 1    
    93   46  109 1    
    94   47   48 1    
    95   48  110 1    
    96   48  111 1    
    97   49   50 am   BACKBONE|DICT|INTERRES
    98   49  112 1    
    99   50   51 2    
   100   50   52 1    
   101   52   53 1    
   102   52   54 1    
   103   52  113 1    
   104   53  114 1    
   105   53  115 1    
   106   53  116 1    
   107   54   55 am   BACKBONE|DICT|INTERRES
   108   54  117 1    
   109   55   56 2    
   110   55   57 1    
   111   57   58 1    
   112   57   59 1    
   113   57  118 1    
   114   58  119 1    
   115   58  120 1    
   116   58  121 1    
   117   59   60 am   BACKBONE|DICT|INTERRES
   118   59  122 1    
   119   60   61 2    
   120   60   62 1    
   121   62   63 1    
   122   62   64 1    
   123   62  123 1    
   124   63  124 1    
   125   63  125 1    
   126   63  126 1    
   127   64   65 am   BACKBONE|DICT|INTERRES
   128   64  127 1    
   129   65   66 2    
@<TRIPOS>SUBSTRUCTURE
     1 UNK         1 GROUP             0       ****    0 ROOT    
