@<TRIPOS>MOLECULE
3R135
127   129    1
SMALL
USER_CHARGES


@<TRIPOS>ATOM
      1 CA        -77.1642   26.3067  -72.6337 C.3       0 UNK        -0.1998 
      2 C         -78.3358   25.5604  -72.0277 C.2       0 UNK         0.4909 
      3 O         -78.4581   24.3538  -72.2309 O.2       0 UNK        -0.5240 
      4 N         -79.2250   26.2594  -71.3079 N.am      1 UNK        -0.4739 
      5 CA        -80.4299   25.6625  -70.7120 C.3       1 UNK         0.0864 
      6 C6        -81.0398   26.5445  -69.5928 C.3       11 UNK        -0.0881 
      7 S7        -81.9480   28.0294  -70.1461 S.3       11 UNK        -0.2682 
      8 C8        -80.7265   29.3631  -69.9023 C.3       11 UNK         0.0289 
      9 C9        -79.7567   29.5314  -71.0690 C.ar      11 UNK        -0.0687 
     10 C10       -80.2032   29.4493  -72.3926 C.ar      11 UNK        -0.0823 
     11 C11       -79.3268   29.6667  -73.4581 C.ar      11 UNK        -0.0830 
     12 C12       -77.9938   29.9969  -73.1964 C.ar      11 UNK        -0.1021 
     13 C13       -77.5312   30.0801  -71.8792 C.ar      11 UNK        -0.0753 
     14 C14       -78.4148   29.8387  -70.8214 C.ar      11 UNK        -0.0933 
     15 C15       -76.0853   30.4616  -71.5979 C.3       11 UNK         0.0166 
     16 S16       -74.9497   29.0729  -71.8989 S.3       11 UNK        -0.2615 
     17 C17       -73.3930   29.7673  -71.2448 C.3       11 UNK        -0.0865 
     18 CA        -72.5910   30.5748  -72.2989 C.3       10 UNK         0.0862 
     19 C         -71.3671   31.2796  -71.6436 C.2       10 UNK         0.5551 
     20 N         -70.1335   30.9548  -72.0121 N.am      10 UNK        -0.7319 
     21 O         -71.5437   32.1426  -70.7873 O.2       10 UNK        -0.5018 
     22 N         -72.2633   29.7560  -73.4763 N.am      10 UNK        -0.4509 
     23 C         -71.9733   30.2297  -74.6926 C.2       10 UNK         0.4899 
     24 O         -71.9685   31.4294  -74.9701 O.2       10 UNK        -0.4839 
     25 CA        -71.6459   29.2137  -75.8040 C.3       9 UNK         0.0222 
     26 CB        -70.1284   29.1418  -76.0632 C.3       9 UNK        -0.1966 
     27 N         -72.2226   27.8730  -75.6246 N.am      9 UNK        -0.4218 
     28 C         -71.9237   26.9308  -74.7177 C.2       9 UNK         0.5020 
     29 O         -71.1101   27.0861  -73.8067 O.2       9 UNK        -0.5274 
     30 CA        -72.6847   25.5976  -74.8240 C.3       8 UNK         0.0270 
     31 CB        -73.9960   25.6738  -74.0286 C.3       8 UNK        -0.1976 
     32 N         -72.9738   25.2021  -76.2057 N.am      8 UNK        -0.4313 
     33 C         -72.0455   24.8626  -77.1130 C.2       8 UNK         0.5041 
     34 O         -70.8396   24.7954  -76.8722 O.2       8 UNK        -0.5577 
     35 CA        -72.5447   24.5606  -78.5337 C.3       7 UNK         0.0284 
     36 CB        -73.0455   23.1107  -78.6416 C.3       7 UNK        -0.1958 
     37 N         -73.6077   25.4871  -78.9279 N.am      7 UNK        -0.4454 
     38 C         -73.3900   26.7095  -79.4339 C.2       7 UNK         0.5089 
     39 O         -72.2719   27.1525  -79.6969 O.2       7 UNK        -0.5125 
     40 CA        -74.6228   27.5980  -79.6878 C.3       6 UNK         0.0408 
     41 CB        -75.1085   27.4368  -81.1369 C.3       6 UNK        -0.1791 
     42 N         -75.7374   27.3376  -78.7722 N.am      6 UNK        -0.4762 
     43 C         -75.7168   27.5842  -77.4537 C.2       6 UNK         0.5007 
     44 O         -74.7559   28.0815  -76.8694 O.2       6 UNK        -0.5032 
     45 CA        -76.9583   27.1572  -76.6427 C.3       5 UNK         0.0783 
     46 C46       -77.9821   28.3149  -76.6031 C.3       11 UNK        -0.0857 
     47 S47       -79.4551   27.9276  -75.5996 S.3       11 UNK        -0.2512 
     48 C48       -79.8376   29.5575  -74.8855 C.3       11 UNK         0.0225 
     49 N         -77.5574   25.9000  -77.1161 N.am      5 UNK        -0.4615 
     50 C         -76.9153   24.7334  -77.2610 C.2       4 UNK         0.5053 
     51 O         -75.7146   24.5833  -77.0237 O.2       4 UNK        -0.5105 
     52 CA        -77.7642   23.5623  -77.7868 C.3       4 UNK         0.0263 
     53 CB        -76.9080   22.3571  -78.2322 C.3       4 UNK        -0.1981 
     54 N         -78.8011   23.1517  -76.8310 N.am      4 UNK        -0.4224 
     55 C         -78.6194   22.6567  -75.5973 C.2       3 UNK         0.4895 
     56 O         -77.5196   22.4885  -75.0688 O.2       3 UNK        -0.5091 
     57 CA        -79.9017   22.3041  -74.8295 C.3       3 UNK         0.0250 
     58 CB        -79.6418   21.3561  -73.6434 C.3       3 UNK        -0.1996 
     59 N         -80.5096   23.5347  -74.3290 N.am      3 UNK        -0.4254 
     60 C         -81.5764   24.1442  -74.8663 C.2       2 UNK         0.5004 
     61 O         -82.1572   23.7185  -75.8659 O.2       2 UNK        -0.5226 
     62 CA        -82.0696   25.4589  -74.2229 C.3       2 UNK         0.0269 
     63 CB        -83.6036   25.4911  -74.0566 C.3       2 UNK        -0.1926 
     64 N         -81.3833   25.8121  -72.9729 N.am      2 UNK        -0.4687 
     65 C         -81.4563   25.2045  -71.7758 C.2       1 UNK         0.5165 
     66 O         -82.2320   24.2858  -71.5101 O.2       1 UNK        -0.5079 
     67 H67       -77.4122   27.3468  -72.8314 H         1 UNK         0.0900 
     68 H68       -76.3059   26.2716  -71.9638 H         1 UNK         0.0900 
     69 H69       -76.8842   25.8414  -73.5772 H         1 UNK         0.0900 
     70 H70       -79.1070   27.2560  -71.1792 H         1 UNK         0.2959 
     71 H71       -80.1003   24.7431  -70.2214 H         1 UNK         0.1079 
     72 H72       -80.2634   26.8325  -68.8825 H         1 UNK         0.0837 
     73 H73       -81.7428   25.9435  -69.0130 H         1 UNK         0.0837 
     74 H74       -80.1906   29.1992  -68.9661 H         1 UNK         0.0685 
     75 H75       -81.2689   30.3015  -69.7808 H         1 UNK         0.0685 
     76 H76       -81.2414   29.2253  -72.5964 H         1 UNK         0.1434 
     77 H77       -77.3110   30.1810  -74.0142 H         1 UNK         0.1329 
     78 H78       -78.0618   29.9180  -69.8020 H         1 UNK         0.1335 
     79 H79       -75.7991   31.3038  -72.2297 H         1 UNK         0.0680 
     80 H80       -75.9802   30.8001  -70.5660 H         1 UNK         0.0680 
     81 H81       -72.7878   28.9411  -70.8672 H         1 UNK         0.1032 
     82 H82       -73.6234   30.3855  -70.3749 H         1 UNK         0.1032 
     83 H83       -73.2397   31.3828  -72.6425 H         1 UNK         0.0461 
     84 H84       -69.9829   30.2443  -72.7101 H         1 UNK         0.3453 
     85 H85       -69.3489   31.4202  -71.5838 H         1 UNK         0.3453 
     86 H86       -72.1721   28.7588  -73.3252 H         1 UNK         0.2984 
     87 H87       -72.1123   29.6001  -76.7117 H         1 UNK         0.0554 
     88 H88       -69.7289   30.1262  -76.3109 H         1 UNK         0.0847 
     89 H89       -69.9016   28.4804  -76.8996 H         1 UNK         0.0847 
     90 H90       -69.5806   28.7811  -75.1924 H         1 UNK         0.0847 
     91 H91       -73.0142   27.6857  -76.2358 H         1 UNK         0.3141 
     92 H92       -72.0588   24.8205  -74.3804 H         1 UNK         0.0743 
     93 H93       -73.8005   25.8725  -72.9738 H         1 UNK         0.0784 
     94 H94       -74.6370   26.4757  -74.3940 H         1 UNK         0.0784 
     95 H95       -74.5552   24.7393  -74.0866 H         1 UNK         0.0784 
     96 H96       -73.9524   25.1492  -76.4774 H         1 UNK         0.3213 
     97 H97       -71.7007   24.6740  -79.2180 H         1 UNK         0.0855 
     98 H98       -73.8585   22.9053  -77.9450 H         1 UNK         0.0814 
     99 H99       -72.2428   22.4074  -78.4162 H         1 UNK         0.0814 
    100 H100      -73.3996   22.8861  -79.6478 H         1 UNK         0.0814 
    101 H101      -74.5528   25.2235  -78.6787 H         1 UNK         0.3105 
    102 H102      -74.3122   28.6357  -79.5476 H         1 UNK         0.0547 
    103 H103      -74.3054   27.6524  -81.8431 H         1 UNK         0.0837 
    104 H104      -75.4542   26.4220  -81.3381 H         1 UNK         0.0837 
    105 H105      -75.9258   28.1223  -81.3614 H         1 UNK         0.0837 
    106 H106      -76.5688   26.9236  -79.1692 H         1 UNK         0.3020 
    107 H107      -76.6151   26.9794  -75.6233 H         1 UNK         0.1245 
    108 H108      -78.3195   28.5687  -77.6100 H         1 UNK         0.0781 
    109 H109      -77.5064   29.2135  -76.2061 H         1 UNK         0.0781 
    110 H110      -80.9195   29.6974  -74.9084 H         1 UNK         0.0836 
    111 H111      -79.4244   30.3589  -75.4997 H         1 UNK         0.0836 
    112 H112      -78.5473   25.9371  -77.3117 H         1 UNK         0.3022 
    113 H113      -78.2872   23.9286  -78.6717 H         1 UNK         0.0747 
    114 H114      -77.5288   21.5559  -78.6328 H         1 UNK         0.0793 
    115 H115      -76.3200   21.9460  -77.4109 H         1 UNK         0.0793 
    116 H116      -76.2082   22.6471  -79.0168 H         1 UNK         0.0793 
    117 H117      -79.7554   23.2732  -77.1443 H         1 UNK         0.3047 
    118 H118      -80.5758   21.7892  -75.5176 H         1 UNK         0.0822 
    119 H119      -80.5709   21.0946  -73.1367 H         1 UNK         0.0807 
    120 H120      -78.9736   21.7999  -72.9046 H         1 UNK         0.0807 
    121 H121      -79.1826   20.4264  -73.9816 H         1 UNK         0.0807 
    122 H122      -80.0345   23.9642  -73.5420 H         1 UNK         0.2946 
    123 H123      -81.8109   26.2433  -74.9350 H         1 UNK         0.1144 
    124 H124      -84.1019   25.4108  -75.0234 H         1 UNK         0.0793 
    125 H125      -83.9339   26.4242  -73.6002 H         1 UNK         0.0793 
    126 H126      -83.9654   24.6677  -73.4407 H         1 UNK         0.0793 
    127 H127      -80.6953   26.5479  -73.0584 H         1 UNK         0.2896 
@<TRIPOS>BOND
     1    1    2 1    
     2    1   67 1    
     3    1   68 1    
     4    1   69 1    
     5    2    3 2    
     6    2    4 am   BACKBONE|DICT|INTERRES
     7    4    5 1    
     8    4   70 1    
     9    5    6 1    
    10    5   65 1    
    11    5   71 1    
    12    6    7 1    
    13    6   72 1    
    14    6   73 1    
    15    7    8 1    
    16    8    9 1    
    17    8   74 1    
    18    8   75 1    
    19    9   10 ar   
    20    9   14 ar   
    21   10   11 ar   
    22   10   76 1    
    23   11   12 ar   
    24   11   48 1    
    25   12   13 ar   
    26   12   77 1    
    27   13   14 ar   
    28   13   15 1    
    29   14   78 1    
    30   15   16 1    
    31   15   79 1    
    32   15   80 1    
    33   16   17 1    
    34   17   18 1    
    35   17   81 1    
    36   17   82 1    
    37   18   19 1    
    38   18   22 1    
    39   18   83 1    
    40   19   20 am   BACKBONE|DICT|INTERRES
    41   19   21 2    
    42   20   84 1    
    43   20   85 1    
    44   22   23 am   BACKBONE|DICT|INTERRES
    45   22   86 1    
    46   23   24 2    
    47   23   25 1    
    48   25   26 1    
    49   25   27 1    
    50   25   87 1    
    51   26   88 1    
    52   26   89 1    
    53   26   90 1    
    54   27   28 am   BACKBONE|DICT|INTERRES
    55   27   91 1    
    56   28   29 2    
    57   28   30 1    
    58   30   31 1    
    59   30   32 1    
    60   30   92 1    
    61   31   93 1    
    62   31   94 1    
    63   31   95 1    
    64   32   33 am   BACKBONE|DICT|INTERRES
    65   32   96 1    
    66   33   34 2    
    67   33   35 1    
    68   35   36 1    
    69   35   37 1    
    70   35   97 1    
    71   36   98 1    
    72   36   99 1    
    73   36  100 1    
    74   37   38 am   BACKBONE|DICT|INTERRES
    75   37  101 1    
    76   38   39 2    
    77   38   40 1    
    78   40   41 1    
    79   40   42 1    
    80   40  102 1    
    81   41  103 1    
    82   41  104 1    
    83   41  105 1    
    84   42   43 am   BACKBONE|DICT|INTERRES
    85   42  106 1    
    86   43   44 2    
    87   43   45 1    
    88   45   46 1    
    89   45   49 1    
    90   45  107 1    
    91   46   47 1    
    92   46  108 1    
    93   46  109 1    
    94   47   48 1    
    95   48  110 1    
    96   48  111 1    
    97   49   50 am   BACKBONE|DICT|INTERRES
    98   49  112 1    
    99   50   51 2    
   100   50   52 1    
   101   52   53 1    
   102   52   54 1    
   103   52  113 1    
   104   53  114 1    
   105   53  115 1    
   106   53  116 1    
   107   54   55 am   BACKBONE|DICT|INTERRES
   108   54  117 1    
   109   55   56 2    
   110   55   57 1    
   111   57   58 1    
   112   57   59 1    
   113   57  118 1    
   114   58  119 1    
   115   58  120 1    
   116   58  121 1    
   117   59   60 am   BACKBONE|DICT|INTERRES
   118   59  122 1    
   119   60   61 2    
   120   60   62 1    
   121   62   63 1    
   122   62   64 1    
   123   62  123 1    
   124   63  124 1    
   125   63  125 1    
   126   63  126 1    
   127   64   65 am   BACKBONE|DICT|INTERRES
   128   64  127 1    
   129   65   66 2    
@<TRIPOS>SUBSTRUCTURE
     1 UNK         1 GROUP             0       ****    0 ROOT    
