@<TRIPOS>MOLECULE
3R135
127   129    1
SMALL
USER_CHARGES


@<TRIPOS>ATOM
      1 CA        -85.7904   25.5276  -73.7018 C.3       0 UNK        -0.1998 
      2 C         -84.2939   25.7930  -73.7609 C.2       0 UNK         0.4909 
      3 O         -83.7794   26.1760  -74.8120 O.2       0 UNK        -0.5240 
      4 N         -83.5834   25.5772  -72.6450 N.am      1 UNK        -0.4739 
      5 CA        -82.1369   25.8100  -72.5113 C.3       1 UNK         0.0864 
      6 C6        -81.7296   26.1366  -71.0420 C.3       11 UNK        -0.0881 
      7 S7        -81.0275   27.8145  -70.8683 S.3       11 UNK        -0.2682 
      8 C8        -79.3481   27.5083  -71.4904 C.3       11 UNK         0.0289 
      9 C9        -78.4991   28.7642  -71.5733 C.ar      11 UNK        -0.0687 
     10 C10       -78.7895   29.7432  -72.5263 C.ar      11 UNK        -0.0823 
     11 C11       -77.9467   30.8461  -72.6907 C.ar      11 UNK        -0.0830 
     12 C12       -76.8101   30.9689  -71.8871 C.ar      11 UNK        -0.1021 
     13 C13       -76.5114   29.9980  -70.9262 C.ar      11 UNK        -0.0753 
     14 C14       -77.3721   28.9072  -70.7614 C.ar      11 UNK        -0.0933 
     15 C15       -75.2462   30.1282  -70.0869 C.3       11 UNK         0.0166 
     16 S16       -74.2737   28.5872  -69.9955 S.3       11 UNK        -0.2615 
     17 C17       -73.9038   28.2400  -71.7539 C.3       11 UNK        -0.0865 
     18 CA        -72.6747   28.9775  -72.3525 C.3       10 UNK         0.0862 
     19 C         -71.3693   28.7489  -71.5233 C.2       10 UNK         0.5551 
     20 N         -70.4901   27.8285  -71.9033 N.am      10 UNK        -0.7319 
     21 O         -71.1336   29.4413  -70.5362 O.2       10 UNK        -0.5018 
     22 N         -72.5481   28.6384  -73.7791 N.am      10 UNK        -0.4509 
     23 C         -71.6598   29.1747  -74.6285 C.2       10 UNK         0.4899 
     24 O         -70.9939   30.1786  -74.3700 O.2       10 UNK        -0.4839 
     25 CA        -71.4553   28.4502  -75.9789 C.3       9 UNK         0.0222 
     26 CB        -70.0190   28.6144  -76.5185 C.3       9 UNK        -0.1966 
     27 N         -71.8318   27.0286  -75.9553 N.am      9 UNK        -0.4218 
     28 C         -71.3563   26.0644  -75.1482 C.2       9 UNK         0.5020 
     29 O         -70.4644   26.2469  -74.3190 O.2       9 UNK        -0.5274 
     30 CA        -72.0099   24.6746  -75.2350 C.3       8 UNK         0.0270 
     31 CB        -72.5923   24.2589  -73.8713 C.3       8 UNK        -0.1976 
     32 N         -73.0773   24.6355  -76.2385 N.am      8 UNK        -0.4313 
     33 C         -73.0169   23.9489  -77.3865 C.2       8 UNK         0.5041 
     34 O         -72.0757   23.2219  -77.7072 O.2       8 UNK        -0.5577 
     35 CA        -74.2000   24.1069  -78.3537 C.3       7 UNK         0.0284 
     36 CB        -75.3071   23.0910  -78.0261 C.3       7 UNK        -0.1958 
     37 N         -74.7662   25.4590  -78.3828 N.am      7 UNK        -0.4454 
     38 C         -74.1390   26.5402  -78.8699 C.2       7 UNK         0.5089 
     39 O         -72.9666   26.5400  -79.2428 O.2       7 UNK        -0.5125 
     40 CA        -74.9470   27.8424  -78.9501 C.3       6 UNK         0.0408 
     41 CB        -75.9243   27.7942  -80.1360 C.3       6 UNK        -0.1791 
     42 N         -75.6965   28.0753  -77.7173 N.am      6 UNK        -0.4762 
     43 C         -75.4345   29.0415  -76.8242 C.2       6 UNK         0.5007 
     44 O         -74.5365   29.8727  -76.9543 O.2       6 UNK        -0.5032 
     45 CA        -76.3293   29.0827  -75.5647 C.3       5 UNK         0.0783 
     46 C46       -77.5289   30.0468  -75.7826 C.3       11 UNK        -0.0857 
     47 S47       -77.1593   31.7369  -75.2025 S.3       11 UNK        -0.2512 
     48 C48       -78.2525   31.8932  -73.7520 C.3       11 UNK         0.0225 
     49 N         -76.7780   27.7503  -75.1436 N.am      5 UNK        -0.4615 
     50 C         -75.9783   26.7239  -74.8230 C.2       4 UNK         0.5053 
     51 O         -74.7502   26.8026  -74.7633 O.2       4 UNK        -0.5105 
     52 CA        -76.6479   25.3576  -74.5935 C.3       4 UNK         0.0263 
     53 CB        -76.7512   25.0608  -73.0911 C.3       4 UNK        -0.1981 
     54 N         -77.9650   25.1914  -75.2300 N.am      4 UNK        -0.4224 
     55 C         -78.1989   25.2673  -76.5529 C.2       3 UNK         0.4895 
     56 O         -77.3388   25.6203  -77.3625 O.2       3 UNK        -0.5091 
     57 CA        -79.6140   24.9396  -77.0775 C.3       3 UNK         0.0250 
     58 CB        -79.5682   24.2194  -78.4421 C.3       3 UNK        -0.1996 
     59 N         -80.4689   24.2146  -76.1287 N.am      3 UNK        -0.4254 
     60 C         -80.2734   22.9949  -75.6007 C.2       2 UNK         0.5004 
     61 O         -79.3522   22.2456  -75.9277 O.2       2 UNK        -0.5226 
     62 CA        -81.2601   22.5591  -74.4912 C.3       2 UNK         0.0269 
     63 CB        -80.6107   21.5842  -73.4857 C.3       2 UNK        -0.1926 
     64 N         -81.8919   23.6809  -73.7721 N.am      2 UNK        -0.4687 
     65 C         -81.2695   24.6861  -73.1329 C.2       1 UNK         0.5165 
     66 O         -80.0429   24.7673  -73.0649 O.2       1 UNK        -0.5079 
     67 H67       -86.0690   24.7784  -74.4424 H         1 UNK         0.0900 
     68 H68       -86.1029   25.1683  -72.7214 H         1 UNK         0.0900 
     69 H69       -86.3413   26.4423  -73.9188 H         1 UNK         0.0900 
     70 H70       -84.0540   25.2412  -71.8159 H         1 UNK         0.2959 
     71 H71       -81.9092   26.6837  -73.1266 H         1 UNK         0.1079 
     72 H72       -81.0204   25.4144  -70.6312 H         1 UNK         0.0837 
     73 H73       -82.5932   26.0837  -70.3772 H         1 UNK         0.0837 
     74 H74       -78.8673   26.7490  -70.8716 H         1 UNK         0.0685 
     75 H75       -79.4121   27.1009  -72.4975 H         1 UNK         0.0685 
     76 H76       -79.6618   29.6298  -73.1555 H         1 UNK         0.1434 
     77 H77       -76.1503   31.8149  -72.0248 H         1 UNK         0.1329 
     78 H78       -77.1394   28.1473  -70.0280 H         1 UNK         0.1335 
     79 H79       -74.6021   30.9182  -70.4765 H         1 UNK         0.0680 
     80 H80       -75.5259   30.4271  -69.0761 H         1 UNK         0.0680 
     81 H81       -73.7597   27.1618  -71.8452 H         1 UNK         0.1032 
     82 H82       -74.7904   28.4598  -72.3499 H         1 UNK         0.1032 
     83 H83       -72.8844   30.0478  -72.3085 H         1 UNK         0.0461 
     84 H84       -69.6493   27.7049  -71.3631 H         1 UNK         0.3453 
     85 H85       -70.6234   27.2845  -72.7517 H         1 UNK         0.3453 
     86 H86       -73.0945   27.8468  -74.0998 H         1 UNK         0.2984 
     87 H87       -72.1263   28.9300  -76.6905 H         1 UNK         0.0554 
     88 H88       -69.7766   29.6657  -76.6781 H         1 UNK         0.0847 
     89 H89       -69.8944   28.1074  -77.4753 H         1 UNK         0.0847 
     90 H90       -69.2790   28.2118  -75.8259 H         1 UNK         0.0847 
     91 H91       -72.5533   26.7656  -76.6100 H         1 UNK         0.3141 
     92 H92       -71.2150   23.9708  -75.4898 H         1 UNK         0.0743 
     93 H93       -73.3417   24.9649  -73.5142 H         1 UNK         0.0784 
     94 H94       -73.0574   23.2744  -73.9229 H         1 UNK         0.0784 
     95 H95       -71.8109   24.2061  -73.1120 H         1 UNK         0.0784 
     96 H96       -73.8886   25.2102  -76.0472 H         1 UNK         0.3213 
     97 H97       -73.8297   23.8865  -79.3575 H         1 UNK         0.0855 
     98 H98       -75.7267   23.2510  -77.0329 H         1 UNK         0.0814 
     99 H99       -74.9212   22.0712  -78.0553 H         1 UNK         0.0814 
    100 H100      -76.1243   23.1482  -78.7455 H         1 UNK         0.0814 
    101 H101      -75.7382   25.5439  -78.0862 H         1 UNK         0.3105 
    102 H102      -74.2430   28.6576  -79.1302 H         1 UNK         0.0547 
    103 H103      -75.3949   27.6083  -81.0716 H         1 UNK         0.0837 
    104 H104      -76.6691   27.0056  -80.0191 H         1 UNK         0.0837 
    105 H105      -76.4550   28.7397  -80.2475 H         1 UNK         0.0837 
    106 H106      -76.4337   27.4100  -77.5068 H         1 UNK         0.3020 
    107 H107      -75.7082   29.4580  -74.7474 H         1 UNK         0.1245 
    108 H108      -78.4168   29.6883  -75.2631 H         1 UNK         0.0781 
    109 H109      -77.8307   30.0968  -76.8312 H         1 UNK         0.0781 
    110 H110      -79.2924   31.8261  -74.0758 H         1 UNK         0.0836 
    111 H111      -78.1322   32.8894  -73.3237 H         1 UNK         0.0836 
    112 H112      -77.7718   27.5815  -75.1666 H         1 UNK         0.3022 
    113 H113      -75.9885   24.6070  -75.0320 H         1 UNK         0.0747 
    114 H114      -77.3884   25.7819  -72.5825 H         1 UNK         0.0793 
    115 H115      -77.1593   24.0664  -72.9089 H         1 UNK         0.0793 
    116 H116      -75.7710   25.1019  -72.6141 H         1 UNK         0.0793 
    117 H117      -78.7268   24.9237  -74.6138 H         1 UNK         0.3047 
    118 H118      -80.0973   25.9047  -77.2350 H         1 UNK         0.0822 
    119 H119      -80.5705   24.0053  -78.8127 H         1 UNK         0.0807 
    120 H120      -79.0222   23.2772  -78.3850 H         1 UNK         0.0807 
    121 H121      -79.0719   24.8337  -79.1946 H         1 UNK         0.0807 
    122 H122      -81.2657   24.7339  -75.7851 H         1 UNK         0.2946 
    123 H123      -82.0629   22.0242  -75.0014 H         1 UNK         0.1144 
    124 H124      -81.3208   21.2724  -72.7198 H         1 UNK         0.0793 
    125 H125      -79.7525   22.0335  -72.9847 H         1 UNK         0.0793 
    126 H126      -80.2591   20.6801  -73.9844 H         1 UNK         0.0793 
    127 H127      -82.9019   23.7083  -73.7975 H         1 UNK         0.2896 
@<TRIPOS>BOND
     1    1    2 1    
     2    1   67 1    
     3    1   68 1    
     4    1   69 1    
     5    2    3 2    
     6    2    4 am   BACKBONE|DICT|INTERRES
     7    4    5 1    
     8    4   70 1    
     9    5    6 1    
    10    5   65 1    
    11    5   71 1    
    12    6    7 1    
    13    6   72 1    
    14    6   73 1    
    15    7    8 1    
    16    8    9 1    
    17    8   74 1    
    18    8   75 1    
    19    9   10 ar   
    20    9   14 ar   
    21   10   11 ar   
    22   10   76 1    
    23   11   12 ar   
    24   11   48 1    
    25   12   13 ar   
    26   12   77 1    
    27   13   14 ar   
    28   13   15 1    
    29   14   78 1    
    30   15   16 1    
    31   15   79 1    
    32   15   80 1    
    33   16   17 1    
    34   17   18 1    
    35   17   81 1    
    36   17   82 1    
    37   18   19 1    
    38   18   22 1    
    39   18   83 1    
    40   19   20 am   BACKBONE|DICT|INTERRES
    41   19   21 2    
    42   20   84 1    
    43   20   85 1    
    44   22   23 am   BACKBONE|DICT|INTERRES
    45   22   86 1    
    46   23   24 2    
    47   23   25 1    
    48   25   26 1    
    49   25   27 1    
    50   25   87 1    
    51   26   88 1    
    52   26   89 1    
    53   26   90 1    
    54   27   28 am   BACKBONE|DICT|INTERRES
    55   27   91 1    
    56   28   29 2    
    57   28   30 1    
    58   30   31 1    
    59   30   32 1    
    60   30   92 1    
    61   31   93 1    
    62   31   94 1    
    63   31   95 1    
    64   32   33 am   BACKBONE|DICT|INTERRES
    65   32   96 1    
    66   33   34 2    
    67   33   35 1    
    68   35   36 1    
    69   35   37 1    
    70   35   97 1    
    71   36   98 1    
    72   36   99 1    
    73   36  100 1    
    74   37   38 am   BACKBONE|DICT|INTERRES
    75   37  101 1    
    76   38   39 2    
    77   38   40 1    
    78   40   41 1    
    79   40   42 1    
    80   40  102 1    
    81   41  103 1    
    82   41  104 1    
    83   41  105 1    
    84   42   43 am   BACKBONE|DICT|INTERRES
    85   42  106 1    
    86   43   44 2    
    87   43   45 1    
    88   45   46 1    
    89   45   49 1    
    90   45  107 1    
    91   46   47 1    
    92   46  108 1    
    93   46  109 1    
    94   47   48 1    
    95   48  110 1    
    96   48  111 1    
    97   49   50 am   BACKBONE|DICT|INTERRES
    98   49  112 1    
    99   50   51 2    
   100   50   52 1    
   101   52   53 1    
   102   52   54 1    
   103   52  113 1    
   104   53  114 1    
   105   53  115 1    
   106   53  116 1    
   107   54   55 am   BACKBONE|DICT|INTERRES
   108   54  117 1    
   109   55   56 2    
   110   55   57 1    
   111   57   58 1    
   112   57   59 1    
   113   57  118 1    
   114   58  119 1    
   115   58  120 1    
   116   58  121 1    
   117   59   60 am   BACKBONE|DICT|INTERRES
   118   59  122 1    
   119   60   61 2    
   120   60   62 1    
   121   62   63 1    
   122   62   64 1    
   123   62  123 1    
   124   63  124 1    
   125   63  125 1    
   126   63  126 1    
   127   64   65 am   BACKBONE|DICT|INTERRES
   128   64  127 1    
   129   65   66 2    
@<TRIPOS>SUBSTRUCTURE
     1 UNK         1 GROUP             0       ****    0 ROOT    
