@<TRIPOS>MOLECULE
3R135
127   129    1
SMALL
USER_CHARGES


@<TRIPOS>ATOM
      1 CA        -83.5443   28.8389  -74.8203 C.3       0 UNK        -0.1998 
      2 C         -82.0794   29.0802  -75.1761 C.2       0 UNK         0.4909 
      3 O         -81.8138   29.6865  -76.2122 O.2       0 UNK        -0.5240 
      4 N         -81.0903   28.6538  -74.3757 N.am      1 UNK        -0.4739 
      5 CA        -81.1616   27.8824  -73.1228 C.3       1 UNK         0.0864 
      6 C6        -81.9027   28.5885  -71.9501 C.3       11 UNK        -0.0881 
      7 S7        -81.3671   30.3152  -71.6709 S.3       11 UNK        -0.2682 
      8 C8        -80.2613   30.1745  -70.2283 C.3       11 UNK         0.0289 
      9 C9        -78.8846   29.6572  -70.6194 C.ar      11 UNK        -0.0687 
     10 C10       -78.5750   28.3016  -70.4778 C.ar      11 UNK        -0.0823 
     11 C11       -77.3255   27.8165  -70.8738 C.ar      11 UNK        -0.0830 
     12 C12       -76.3714   28.7016  -71.3848 C.ar      11 UNK        -0.1021 
     13 C13       -76.6621   30.0616  -71.5163 C.ar      11 UNK        -0.0753 
     14 C14       -77.9212   30.5346  -71.1308 C.ar      11 UNK        -0.0933 
     15 C15       -75.6228   31.0031  -72.1088 C.3       11 UNK         0.0166 
     16 S16       -74.1978   31.2095  -70.9959 S.3       11 UNK        -0.2615 
     17 C17       -73.1286   32.3237  -71.9755 C.3       11 UNK        -0.0865 
     18 CA        -71.8154   31.7104  -72.5532 C.3       10 UNK         0.0862 
     19 C         -70.8778   31.0498  -71.4941 C.2       10 UNK         0.5551 
     20 N         -70.1773   29.9669  -71.8070 N.am      10 UNK        -0.7319 
     21 O         -70.7366   31.5634  -70.3866 O.2       10 UNK        -0.5018 
     22 N         -72.0096   30.9908  -73.8272 N.am      10 UNK        -0.4509 
     23 C         -72.4930   29.7572  -74.0256 C.2       10 UNK         0.4899 
     24 O         -72.8741   29.0092  -73.1243 O.2       10 UNK        -0.4839 
     25 CA        -72.5834   29.2868  -75.4937 C.3       9 UNK         0.0222 
     26 CB        -71.5832   29.9787  -76.4492 C.3       9 UNK        -0.1966 
     27 N         -72.4995   27.8280  -75.6083 N.am      9 UNK        -0.4218 
     28 C         -71.4582   27.0391  -75.3082 C.2       9 UNK         0.5020 
     29 O         -70.3490   27.4560  -74.9688 O.2       9 UNK        -0.5274 
     30 CA        -71.6939   25.5188  -75.3784 C.3       8 UNK         0.0270 
     31 CB        -72.1932   24.9983  -74.0207 C.3       8 UNK        -0.1976 
     32 N         -72.6272   25.1008  -76.4313 N.am      8 UNK        -0.4313 
     33 C         -72.3638   25.1445  -77.7456 C.2       8 UNK         0.5041 
     34 O         -71.3050   25.5608  -78.2178 O.2       8 UNK        -0.5577 
     35 CA        -73.4581   24.6279  -78.6977 C.3       7 UNK         0.0284 
     36 CB        -73.4862   23.0908  -78.7284 C.3       7 UNK        -0.1958 
     37 N         -74.7841   25.1395  -78.3503 N.am      7 UNK        -0.4454 
     38 C         -75.1874   26.3990  -78.5697 C.2       7 UNK         0.5089 
     39 O         -74.5215   27.2381  -79.1767 O.2       7 UNK        -0.5125 
     40 CA        -76.5535   26.8039  -77.9853 C.3       6 UNK         0.0408 
     41 CB        -77.6861   26.5050  -78.9795 C.3       6 UNK        -0.1791 
     42 N         -76.8424   26.1590  -76.7016 N.am      6 UNK        -0.4762 
     43 C         -76.1139   26.3263  -75.5883 C.2       6 UNK         0.5007 
     44 O         -75.1489   27.0815  -75.5157 O.2       6 UNK        -0.5032 
     45 CA        -76.4967   25.4857  -74.3593 C.3       5 UNK         0.0783 
     46 C46       -77.6218   26.1881  -73.5763 C.3       11 UNK        -0.0857 
     47 S47       -78.0138   25.3686  -71.9938 S.3       11 UNK        -0.2512 
     48 C48       -77.0210   26.3275  -70.8014 C.3       11 UNK         0.0225 
     49 N         -76.8398   24.1118  -74.7319 N.am      5 UNK        -0.4615 
     50 C         -75.9773   23.2278  -75.2491 C.2       4 UNK         0.5053 
     51 O         -74.7855   23.4678  -75.4389 O.2       4 UNK        -0.5105 
     52 CA        -76.5546   21.8660  -75.6666 C.3       4 UNK         0.0263 
     53 CB        -76.6483   20.9244  -74.4558 C.3       4 UNK        -0.1981 
     54 N         -77.8714   21.9920  -76.2977 N.am      4 UNK        -0.4224 
     55 C         -78.0868   22.5770  -77.4856 C.2       3 UNK         0.4895 
     56 O         -77.1882   23.0102  -78.2078 O.2       3 UNK        -0.5091 
     57 CA        -79.5569   22.7500  -77.9132 C.3       3 UNK         0.0250 
     58 CB        -80.0776   21.4743  -78.5942 C.3       3 UNK        -0.1996 
     59 N         -80.4454   23.1176  -76.8010 N.am      3 UNK        -0.4254 
     60 C         -80.3343   24.2550  -76.1011 C.2       2 UNK         0.5004 
     61 O         -79.4881   25.1195  -76.3484 O.2       2 UNK        -0.5226 
     62 CA        -81.2755   24.4426  -74.9000 C.3       2 UNK         0.0269 
     63 CB        -80.9309   23.4153  -73.7982 C.3       2 UNK        -0.1926 
     64 N         -81.0927   25.8160  -74.4270 N.am      2 UNK        -0.4687 
     65 C         -81.6358   26.4306  -73.3694 C.2       1 UNK         0.5165 
     66 O         -82.4842   25.9194  -72.6374 O.2       1 UNK        -0.5079 
     67 H67       -83.8736   29.5614  -74.0745 H         1 UNK         0.0900 
     68 H68       -84.1707   28.9693  -75.7025 H         1 UNK         0.0900 
     69 H69       -83.7279   27.8351  -74.4445 H         1 UNK         0.0900 
     70 H70       -80.1485   28.8803  -74.6617 H         1 UNK         0.2959 
     71 H71       -80.1241   27.7786  -72.8028 H         1 UNK         0.1079 
     72 H72       -81.7619   28.0226  -71.0276 H         1 UNK         0.0837 
     73 H73       -82.9797   28.5964  -72.1175 H         1 UNK         0.0837 
     74 H74       -80.7171   29.5372  -69.4690 H         1 UNK         0.0685 
     75 H75       -80.1591   31.1600  -69.7715 H         1 UNK         0.0685 
     76 H76       -79.3163   27.6156  -70.0909 H         1 UNK         0.1434 
     77 H77       -75.4037   28.3347  -71.7020 H         1 UNK         0.1329 
     78 H78       -78.1602   31.5835  -71.2422 H         1 UNK         0.1335 
     79 H79       -76.0616   31.9805  -72.3152 H         1 UNK         0.0680 
     80 H80       -75.2824   30.6050  -73.0656 H         1 UNK         0.0680 
     81 H81       -72.8681   33.1577  -71.3214 H         1 UNK         0.1032 
     82 H82       -73.7099   32.7740  -72.7813 H         1 UNK         0.1032 
     83 H83       -71.2262   32.5718  -72.8706 H         1 UNK         0.0461 
     84 H84       -69.5597   29.5614  -71.1220 H         1 UNK         0.3453 
     85 H85       -70.3016   29.5236  -72.7039 H         1 UNK         0.3453 
     86 H86       -71.7045   31.4992  -74.6443 H         1 UNK         0.2984 
     87 H87       -73.5888   29.5454  -75.8286 H         1 UNK         0.0554 
     88 H88       -71.7998   31.0421  -76.5545 H         1 UNK         0.0847 
     89 H89       -71.6372   29.5483  -77.4495 H         1 UNK         0.0847 
     90 H90       -70.5531   29.8813  -76.1044 H         1 UNK         0.0847 
     91 H91       -73.4005   27.3762  -75.7602 H         1 UNK         0.3141 
     92 H92       -70.7301   25.0487  -75.5853 H         1 UNK         0.0743 
     93 H93       -71.4940   25.2544  -73.2234 H         1 UNK         0.0784 
     94 H94       -73.1592   25.4294  -73.7567 H         1 UNK         0.0784 
     95 H95       -72.2988   23.9132  -74.0242 H         1 UNK         0.0784 
     96 H96       -73.4995   24.6757  -76.1241 H         1 UNK         0.3213 
     97 H97       -73.2126   24.9760  -79.7037 H         1 UNK         0.0855 
     98 H98       -73.7287   22.6658  -77.7544 H         1 UNK         0.0814 
     99 H99       -72.5160   22.6905  -79.0254 H         1 UNK         0.0814 
    100 H100      -74.2220   22.7230  -79.4439 H         1 UNK         0.0814 
    101 H101      -75.4194   24.5061  -77.8807 H         1 UNK         0.3105 
    102 H102      -76.5314   27.8818  -77.8122 H         1 UNK         0.0547 
    103 H103      -77.5187   27.0195  -79.9265 H         1 UNK         0.0837 
    104 H104      -78.6502   26.8379  -78.5946 H         1 UNK         0.0837 
    105 H105      -77.7633   25.4398  -79.1971 H         1 UNK         0.0837 
    106 H106      -77.6728   25.5723  -76.6585 H         1 UNK         0.3020 
    107 H107      -75.6147   25.4423  -73.7167 H         1 UNK         0.1245 
    108 H108      -78.5280   26.2112  -74.1746 H         1 UNK         0.0781 
    109 H109      -77.3734   27.2350  -73.4080 H         1 UNK         0.0781 
    110 H110      -75.9626   26.1373  -70.9867 H         1 UNK         0.0836 
    111 H111      -77.2257   25.9642  -69.7934 H         1 UNK         0.0836 
    112 H112      -77.8060   23.8471  -74.6225 H         1 UNK         0.3022 
    113 H113      -75.8699   21.4238  -76.3937 H         1 UNK         0.0747 
    114 H114      -76.9873   19.9313  -74.7511 H         1 UNK         0.0793 
    115 H115      -75.6733   20.8040  -73.9810 H         1 UNK         0.0793 
    116 H116      -77.3351   21.3029  -73.6975 H         1 UNK         0.0793 
    117 H117      -78.6662   21.6502  -75.7779 H         1 UNK         0.3047 
    118 H118      -79.5884   23.5615  -78.6437 H         1 UNK         0.0822 
    119 H119      -81.0842   21.6174  -78.9877 H         1 UNK         0.0807 
    120 H120      -80.1021   20.6273  -77.9074 H         1 UNK         0.0807 
    121 H121      -79.4408   21.1940  -79.4347 H         1 UNK         0.0807 
    122 H122      -81.1639   22.4528  -76.5515 H         1 UNK         0.2946 
    123 H123      -82.3077   24.3150  -75.2314 H         1 UNK         0.1144 
    124 H124      -79.9108   23.5389  -73.4349 H         1 UNK         0.0793 
    125 H125      -81.0246   22.3921  -74.1631 H         1 UNK         0.0793 
    126 H126      -81.5992   23.4973  -72.9418 H         1 UNK         0.0793 
    127 H127      -80.4413   26.3313  -75.0085 H         1 UNK         0.2896 
@<TRIPOS>BOND
     1    1    2 1    
     2    1   67 1    
     3    1   68 1    
     4    1   69 1    
     5    2    3 2    
     6    2    4 am   BACKBONE|DICT|INTERRES
     7    4    5 1    
     8    4   70 1    
     9    5    6 1    
    10    5   65 1    
    11    5   71 1    
    12    6    7 1    
    13    6   72 1    
    14    6   73 1    
    15    7    8 1    
    16    8    9 1    
    17    8   74 1    
    18    8   75 1    
    19    9   10 ar   
    20    9   14 ar   
    21   10   11 ar   
    22   10   76 1    
    23   11   12 ar   
    24   11   48 1    
    25   12   13 ar   
    26   12   77 1    
    27   13   14 ar   
    28   13   15 1    
    29   14   78 1    
    30   15   16 1    
    31   15   79 1    
    32   15   80 1    
    33   16   17 1    
    34   17   18 1    
    35   17   81 1    
    36   17   82 1    
    37   18   19 1    
    38   18   22 1    
    39   18   83 1    
    40   19   20 am   BACKBONE|DICT|INTERRES
    41   19   21 2    
    42   20   84 1    
    43   20   85 1    
    44   22   23 am   BACKBONE|DICT|INTERRES
    45   22   86 1    
    46   23   24 2    
    47   23   25 1    
    48   25   26 1    
    49   25   27 1    
    50   25   87 1    
    51   26   88 1    
    52   26   89 1    
    53   26   90 1    
    54   27   28 am   BACKBONE|DICT|INTERRES
    55   27   91 1    
    56   28   29 2    
    57   28   30 1    
    58   30   31 1    
    59   30   32 1    
    60   30   92 1    
    61   31   93 1    
    62   31   94 1    
    63   31   95 1    
    64   32   33 am   BACKBONE|DICT|INTERRES
    65   32   96 1    
    66   33   34 2    
    67   33   35 1    
    68   35   36 1    
    69   35   37 1    
    70   35   97 1    
    71   36   98 1    
    72   36   99 1    
    73   36  100 1    
    74   37   38 am   BACKBONE|DICT|INTERRES
    75   37  101 1    
    76   38   39 2    
    77   38   40 1    
    78   40   41 1    
    79   40   42 1    
    80   40  102 1    
    81   41  103 1    
    82   41  104 1    
    83   41  105 1    
    84   42   43 am   BACKBONE|DICT|INTERRES
    85   42  106 1    
    86   43   44 2    
    87   43   45 1    
    88   45   46 1    
    89   45   49 1    
    90   45  107 1    
    91   46   47 1    
    92   46  108 1    
    93   46  109 1    
    94   47   48 1    
    95   48  110 1    
    96   48  111 1    
    97   49   50 am   BACKBONE|DICT|INTERRES
    98   49  112 1    
    99   50   51 2    
   100   50   52 1    
   101   52   53 1    
   102   52   54 1    
   103   52  113 1    
   104   53  114 1    
   105   53  115 1    
   106   53  116 1    
   107   54   55 am   BACKBONE|DICT|INTERRES
   108   54  117 1    
   109   55   56 2    
   110   55   57 1    
   111   57   58 1    
   112   57   59 1    
   113   57  118 1    
   114   58  119 1    
   115   58  120 1    
   116   58  121 1    
   117   59   60 am   BACKBONE|DICT|INTERRES
   118   59  122 1    
   119   60   61 2    
   120   60   62 1    
   121   62   63 1    
   122   62   64 1    
   123   62  123 1    
   124   63  124 1    
   125   63  125 1    
   126   63  126 1    
   127   64   65 am   BACKBONE|DICT|INTERRES
   128   64  127 1    
   129   65   66 2    
@<TRIPOS>SUBSTRUCTURE
     1 UNK         1 GROUP             0       ****    0 ROOT    
