@<TRIPOS>MOLECULE
3R135
127   129    1
SMALL
USER_CHARGES


@<TRIPOS>ATOM
      1 CA        -83.6547   27.5235  -76.0069 C.3       0 UNK        -0.1998 
      2 C         -82.2286   27.9753  -75.7342 C.2       0 UNK         0.4909 
      3 O         -81.4396   28.1222  -76.6688 O.2       0 UNK        -0.5240 
      4 N         -81.8947   28.1991  -74.4559 N.am      1 UNK        -0.4739 
      5 CA        -80.5792   28.6660  -74.0051 C.3       1 UNK         0.0864 
      6 C6        -80.5941   29.0555  -72.5064 C.3       11 UNK        -0.0881 
      7 S7        -79.2608   30.2320  -72.0832 S.3       11 UNK        -0.2682 
      8 C8        -78.6931   29.6061  -70.4713 C.3       11 UNK         0.0289 
      9 C9        -77.6932   28.4625  -70.5937 C.ar      11 UNK        -0.0687 
     10 C10       -78.1202   27.1344  -70.4963 C.ar      11 UNK        -0.0823 
     11 C11       -77.1961   26.0843  -70.5053 C.ar      11 UNK        -0.0830 
     12 C12       -75.8328   26.3766  -70.6278 C.ar      11 UNK        -0.1021 
     13 C13       -75.3888   27.6991  -70.7306 C.ar      11 UNK        -0.0753 
     14 C14       -76.3270   28.7369  -70.7188 C.ar      11 UNK        -0.0933 
     15 C15       -73.8927   27.9951  -70.7621 C.3       11 UNK         0.0166 
     16 S16       -73.3227   28.6711  -72.3546 S.3       11 UNK        -0.2615 
     17 C17       -73.3676   30.4745  -72.0452 C.3       11 UNK        -0.0865 
     18 CA        -73.9899   31.2783  -73.2165 C.3       10 UNK         0.0862 
     19 C         -74.0615   32.7886  -72.8615 C.2       10 UNK         0.5551 
     20 N         -75.1940   33.2545  -72.3533 N.am      10 UNK        -0.7319 
     21 O         -73.0864   33.5252  -72.9991 O.2       10 UNK        -0.5018 
     22 N         -73.2584   31.0232  -74.4641 N.am      10 UNK        -0.4509 
     23 C         -73.5958   31.4498  -75.6878 C.2       10 UNK         0.4899 
     24 O         -74.6192   32.0864  -75.9388 O.2       10 UNK        -0.4839 
     25 CA        -72.6242   31.1030  -76.8337 C.3       9 UNK         0.0222 
     26 CB        -71.7434   32.3170  -77.1718 C.3       9 UNK        -0.1966 
     27 N         -71.7643   29.9543  -76.5228 N.am      9 UNK        -0.4218 
     28 C         -72.1703   28.6769  -76.5443 C.2       9 UNK         0.5020 
     29 O         -73.2756   28.3318  -76.9636 O.2       9 UNK        -0.5274 
     30 CA        -71.1855   27.6158  -76.0100 C.3       8 UNK         0.0270 
     31 CB        -70.0938   28.1951  -75.0845 C.3       8 UNK        -0.1976 
     32 N         -71.9029   26.5688  -75.2782 N.am      8 UNK        -0.4313 
     33 C         -72.3693   25.4304  -75.8070 C.2       8 UNK         0.5041 
     34 O         -72.2087   25.1122  -76.9885 O.2       8 UNK        -0.5577 
     35 CA        -73.0977   24.4617  -74.8541 C.3       7 UNK         0.0284 
     36 CB        -73.6231   25.1171  -73.5587 C.3       7 UNK        -0.1958 
     37 N         -74.2193   23.8336  -75.5478 N.am      7 UNK        -0.4454 
     38 C         -74.2438   22.5873  -76.0362 C.2       7 UNK         0.5089 
     39 O         -73.3090   21.7883  -75.9468 O.2       7 UNK        -0.5125 
     40 CA        -75.5658   22.1696  -76.7111 C.3       6 UNK         0.0408 
     41 CB        -75.6290   20.6728  -77.0820 C.3       6 UNK        -0.1791 
     42 N         -76.7198   22.5815  -75.9042 N.am      6 UNK        -0.4762 
     43 C         -77.0531   22.1584  -74.6736 C.2       6 UNK         0.5007 
     44 O         -76.5338   21.1952  -74.1089 O.2       6 UNK        -0.5032 
     45 CA        -78.1364   22.9781  -73.9353 C.3       5 UNK         0.0783 
     46 C46       -77.4793   24.0640  -73.0473 C.3       11 UNK        -0.0857 
     47 S47       -76.9112   23.4422  -71.4350 S.3       11 UNK        -0.2512 
     48 C48       -77.6794   24.6484  -70.3023 C.3       11 UNK         0.0225 
     49 N         -79.1063   23.5905  -74.8482 N.am      5 UNK        -0.4615 
     50 C         -79.9598   22.9305  -75.6410 C.2       4 UNK         0.5053 
     51 O         -80.0952   21.7071  -75.6405 O.2       4 UNK        -0.5105 
     52 CA        -80.7842   23.7862  -76.6161 C.3       4 UNK         0.0263 
     53 CB        -82.0888   24.2538  -75.9544 C.3       4 UNK        -0.1981 
     54 N         -80.0284   24.9445  -77.1064 N.am      4 UNK        -0.4224 
     55 C         -79.0355   24.8645  -78.0057 C.2       3 UNK         0.4895 
     56 O         -78.7096   23.8235  -78.5758 O.2       3 UNK        -0.5091 
     57 CA        -78.2466   26.1527  -78.2932 C.3       3 UNK         0.0250 
     58 CB        -78.9952   27.0388  -79.3014 C.3       3 UNK        -0.1996 
     59 N         -77.9619   26.9183  -77.0784 N.am      3 UNK        -0.4254 
     60 C         -77.1257   26.5217  -76.1074 C.2       2 UNK         0.5004 
     61 O         -76.4565   25.4904  -76.1580 O.2       2 UNK        -0.5226 
     62 CA        -77.0490   27.3955  -74.8445 C.3       2 UNK         0.0269 
     63 CB        -75.8589   28.3537  -74.9170 C.3       2 UNK        -0.1926 
     64 N         -78.2598   28.1683  -74.5752 N.am      2 UNK        -0.4687 
     65 C         -79.4639   27.6473  -74.3142 C.2       1 UNK         0.5165 
     66 O         -79.7028   26.4361  -74.3141 O.2       1 UNK        -0.5079 
     67 H67       -84.3127   28.3880  -76.0892 H         1 UNK         0.0900 
     68 H68       -84.0264   26.8796  -75.2099 H         1 UNK         0.0900 
     69 H69       -83.7085   26.9686  -76.9430 H         1 UNK         0.0900 
     70 H70       -82.5755   28.0286  -73.7298 H         1 UNK         0.2959 
     71 H71       -80.3733   29.5667  -74.5887 H         1 UNK         0.1079 
     72 H72       -80.5508   28.1700  -71.8705 H         1 UNK         0.0837 
     73 H73       -81.5339   29.5518  -72.2586 H         1 UNK         0.0837 
     74 H74       -78.2296   30.4310  -69.9282 H         1 UNK         0.0685 
     75 H75       -79.5526   29.3034  -69.8711 H         1 UNK         0.0685 
     76 H76       -79.1725   26.9199  -70.3722 H         1 UNK         0.1434 
     77 H77       -75.1124   25.5703  -70.6099 H         1 UNK         0.1329 
     78 H78       -75.9952   29.7632  -70.7712 H         1 UNK         0.1335 
     79 H79       -73.6347   28.6730  -69.9477 H         1 UNK         0.0680 
     80 H80       -73.3279   27.0813  -70.5716 H         1 UNK         0.0680 
     81 H81       -72.3454   30.8085  -71.8563 H         1 UNK         0.1032 
     82 H82       -73.9152   30.6743  -71.1235 H         1 UNK         0.1032 
     83 H83       -75.0121   30.9294  -73.3659 H         1 UNK         0.0461 
     84 H84       -75.9984   32.6589  -72.2345 H         1 UNK         0.3453 
     85 H85       -75.2524   34.2289  -72.1014 H         1 UNK         0.3453 
     86 H86       -72.4006   30.5054  -74.3615 H         1 UNK         0.2984 
     87 H87       -73.2237   30.8632  -77.7146 H         1 UNK         0.0554 
     88 H88       -71.0892   32.1107  -78.0191 H         1 UNK         0.0847 
     89 H89       -71.1193   32.6135  -76.3276 H         1 UNK         0.0847 
     90 H90       -72.3556   33.1791  -77.4406 H         1 UNK         0.0847 
     91 H91       -70.8295   30.1575  -76.1985 H         1 UNK         0.3141 
     92 H92       -70.6887   27.1784  -76.8784 H         1 UNK         0.0743 
     93 H93       -69.4530   27.4032  -74.6955 H         1 UNK         0.0784 
     94 H94       -69.4400   28.8875  -75.6160 H         1 UNK         0.0784 
     95 H95       -70.5195   28.7209  -74.2284 H         1 UNK         0.0784 
     96 H96       -72.1245   26.7714  -74.3139 H         1 UNK         0.3213 
     97 H97       -72.3679   23.7020  -74.5668 H         1 UNK         0.0855 
     98 H98       -72.8113   25.5110  -72.9464 H         1 UNK         0.0814 
     99 H99       -74.1494   24.3887  -72.9414 H         1 UNK         0.0814 
    100 H100      -74.3175   25.9318  -73.7628 H         1 UNK         0.0814 
    101 H101      -75.0187   24.4349  -75.7438 H         1 UNK         0.3105 
    102 H102      -75.6296   22.7399  -77.6391 H         1 UNK         0.0547 
    103 H103      -74.8455   20.4187  -77.7967 H         1 UNK         0.0837 
    104 H104      -75.4921   20.0285  -76.2134 H         1 UNK         0.0837 
    105 H105      -76.5835   20.4188  -77.5426 H         1 UNK         0.0837 
    106 H106      -77.1889   23.4146  -76.2389 H         1 UNK         0.3020 
    107 H107      -78.6940   22.2855  -73.3007 H         1 UNK         0.1245 
    108 H108      -78.1914   24.8676  -72.8582 H         1 UNK         0.0781 
    109 H109      -76.6327   24.5324  -73.5499 H         1 UNK         0.0781 
    110 H110      -77.4584   24.3512  -69.2764 H         1 UNK         0.0836 
    111 H111      -78.7633   24.5849  -70.4123 H         1 UNK         0.0836 
    112 H112      -79.1415   24.6051  -74.8526 H         1 UNK         0.3022 
    113 H113      -81.0449   23.1566  -77.4697 H         1 UNK         0.0747 
    114 H114      -82.7252   24.7738  -76.6693 H         1 UNK         0.0793 
    115 H115      -82.6595   23.4051  -75.5749 H         1 UNK         0.0793 
    116 H116      -81.9010   24.9221  -75.1132 H         1 UNK         0.0793 
    117 H117      -80.2212   25.8376  -76.6712 H         1 UNK         0.3047 
    118 H118      -77.2917   25.8635  -78.7381 H         1 UNK         0.0822 
    119 H119      -78.4072   27.9164  -79.5709 H         1 UNK         0.0807 
    120 H120      -79.9519   27.3841  -78.9073 H         1 UNK         0.0807 
    121 H121      -79.2005   26.4923  -80.2230 H         1 UNK         0.0807 
    122 H122      -78.4826   27.7732  -76.9424 H         1 UNK         0.2946 
    123 H123      -76.8914   26.7374  -73.9898 H         1 UNK         0.1144 
    124 H124      -74.9268   27.8058  -75.0483 H         1 UNK         0.0793 
    125 H125      -75.7695   28.9187  -73.9919 H         1 UNK         0.0793 
    126 H126      -75.9452   29.0598  -75.7438 H         1 UNK         0.0793 
    127 H127      -78.1484   29.1711  -74.5236 H         1 UNK         0.2896 
@<TRIPOS>BOND
     1    1    2 1    
     2    1   67 1    
     3    1   68 1    
     4    1   69 1    
     5    2    3 2    
     6    2    4 am   BACKBONE|DICT|INTERRES
     7    4    5 1    
     8    4   70 1    
     9    5    6 1    
    10    5   65 1    
    11    5   71 1    
    12    6    7 1    
    13    6   72 1    
    14    6   73 1    
    15    7    8 1    
    16    8    9 1    
    17    8   74 1    
    18    8   75 1    
    19    9   10 ar   
    20    9   14 ar   
    21   10   11 ar   
    22   10   76 1    
    23   11   12 ar   
    24   11   48 1    
    25   12   13 ar   
    26   12   77 1    
    27   13   14 ar   
    28   13   15 1    
    29   14   78 1    
    30   15   16 1    
    31   15   79 1    
    32   15   80 1    
    33   16   17 1    
    34   17   18 1    
    35   17   81 1    
    36   17   82 1    
    37   18   19 1    
    38   18   22 1    
    39   18   83 1    
    40   19   20 am   BACKBONE|DICT|INTERRES
    41   19   21 2    
    42   20   84 1    
    43   20   85 1    
    44   22   23 am   BACKBONE|DICT|INTERRES
    45   22   86 1    
    46   23   24 2    
    47   23   25 1    
    48   25   26 1    
    49   25   27 1    
    50   25   87 1    
    51   26   88 1    
    52   26   89 1    
    53   26   90 1    
    54   27   28 am   BACKBONE|DICT|INTERRES
    55   27   91 1    
    56   28   29 2    
    57   28   30 1    
    58   30   31 1    
    59   30   32 1    
    60   30   92 1    
    61   31   93 1    
    62   31   94 1    
    63   31   95 1    
    64   32   33 am   BACKBONE|DICT|INTERRES
    65   32   96 1    
    66   33   34 2    
    67   33   35 1    
    68   35   36 1    
    69   35   37 1    
    70   35   97 1    
    71   36   98 1    
    72   36   99 1    
    73   36  100 1    
    74   37   38 am   BACKBONE|DICT|INTERRES
    75   37  101 1    
    76   38   39 2    
    77   38   40 1    
    78   40   41 1    
    79   40   42 1    
    80   40  102 1    
    81   41  103 1    
    82   41  104 1    
    83   41  105 1    
    84   42   43 am   BACKBONE|DICT|INTERRES
    85   42  106 1    
    86   43   44 2    
    87   43   45 1    
    88   45   46 1    
    89   45   49 1    
    90   45  107 1    
    91   46   47 1    
    92   46  108 1    
    93   46  109 1    
    94   47   48 1    
    95   48  110 1    
    96   48  111 1    
    97   49   50 am   BACKBONE|DICT|INTERRES
    98   49  112 1    
    99   50   51 2    
   100   50   52 1    
   101   52   53 1    
   102   52   54 1    
   103   52  113 1    
   104   53  114 1    
   105   53  115 1    
   106   53  116 1    
   107   54   55 am   BACKBONE|DICT|INTERRES
   108   54  117 1    
   109   55   56 2    
   110   55   57 1    
   111   57   58 1    
   112   57   59 1    
   113   57  118 1    
   114   58  119 1    
   115   58  120 1    
   116   58  121 1    
   117   59   60 am   BACKBONE|DICT|INTERRES
   118   59  122 1    
   119   60   61 2    
   120   60   62 1    
   121   62   63 1    
   122   62   64 1    
   123   62  123 1    
   124   63  124 1    
   125   63  125 1    
   126   63  126 1    
   127   64   65 am   BACKBONE|DICT|INTERRES
   128   64  127 1    
   129   65   66 2    
@<TRIPOS>SUBSTRUCTURE
     1 UNK         1 GROUP             0       ****    0 ROOT    
