@<TRIPOS>MOLECULE
3R135
127   129    1
SMALL
USER_CHARGES


@<TRIPOS>ATOM
      1 CA        -84.7495   24.7185  -73.7269 C.3       0 UNK        -0.1998 
      2 C         -83.8280   25.8731  -74.0896 C.2       0 UNK         0.4909 
      3 O         -83.4850   26.0359  -75.2613 O.2       0 UNK        -0.5240 
      4 N         -83.4254   26.6764  -73.0944 N.am      1 UNK        -0.4739 
      5 CA        -82.4944   27.8014  -73.2394 C.3       1 UNK         0.0864 
      6 C6        -82.3680   28.5987  -71.9158 C.3       11 UNK        -0.0881 
      7 S7        -81.6789   30.2746  -72.1499 S.3       11 UNK        -0.2682 
      8 C8        -80.2396   30.2745  -71.0281 C.3       11 UNK         0.0289 
      9 C9        -79.0021   29.6712  -71.6784 C.ar      11 UNK        -0.0687 
     10 C10       -78.6673   28.3314  -71.4655 C.ar      11 UNK        -0.0823 
     11 C11       -77.5507   27.7598  -72.0854 C.ar      11 UNK        -0.0830 
     12 C12       -76.7446   28.5716  -72.8940 C.ar      11 UNK        -0.1021 
     13 C13       -77.0566   29.9189  -73.1137 C.ar      11 UNK        -0.0753 
     14 C14       -78.1915   30.4574  -72.5014 C.ar      11 UNK        -0.0933 
     15 C15       -76.2314   30.8073  -74.0482 C.3       11 UNK         0.0166 
     16 S16       -74.4966   30.2919  -74.2970 S.3       11 UNK        -0.2615 
     17 C17       -73.8291   30.5069  -72.6109 C.3       11 UNK        -0.0865 
     18 CA        -72.2734   30.4953  -72.5702 C.3       10 UNK         0.0862 
     19 C         -71.7091   30.8576  -71.1620 C.2       10 UNK         0.5551 
     20 N         -70.5776   30.3046  -70.7417 N.am      10 UNK        -0.7319 
     21 O         -72.2835   31.6785  -70.4505 O.2       10 UNK        -0.5018 
     22 N         -71.6876   29.2859  -73.1782 N.am      10 UNK        -0.4509 
     23 C         -71.8497   28.0215  -72.7699 C.2       10 UNK         0.4899 
     24 O         -72.5082   27.6999  -71.7807 O.2       10 UNK        -0.4839 
     25 CA        -71.1519   26.9374  -73.6184 C.3       9 UNK         0.0222 
     26 CB        -71.4278   25.5123  -73.1050 C.3       9 UNK        -0.1966 
     27 N         -71.5114   27.0163  -75.0396 N.am      9 UNK        -0.4218 
     28 C         -70.9972   27.8948  -75.9136 C.2       9 UNK         0.5020 
     29 O         -70.1803   28.7639  -75.6041 O.2       9 UNK        -0.5274 
     30 CA        -71.4826   27.8091  -77.3637 C.3       8 UNK         0.0270 
     31 CB        -70.8389   26.6105  -78.0817 C.3       8 UNK        -0.1976 
     32 N         -72.9373   27.6833  -77.4239 N.am      8 UNK        -0.4313 
     33 C         -73.7826   28.6493  -77.8104 C.2       8 UNK         0.5041 
     34 O         -73.4175   29.7892  -78.1044 O.2       8 UNK        -0.5577 
     35 CA        -75.2872   28.2953  -77.9002 C.3       7 UNK         0.0284 
     36 CB        -75.9699   28.9877  -79.0993 C.3       7 UNK        -0.1958 
     37 N         -75.5719   26.8522  -77.9094 N.am      7 UNK        -0.4454 
     38 C         -75.1185   25.9311  -78.7757 C.2       7 UNK         0.5089 
     39 O         -74.5025   26.2004  -79.8076 O.2       7 UNK        -0.5125 
     40 CA        -75.3366   24.4562  -78.3786 C.3       6 UNK         0.0408 
     41 CB        -74.2533   23.5251  -78.9611 C.3       6 UNK        -0.1791 
     42 N         -75.4518   24.2571  -76.9268 N.am      6 UNK        -0.4762 
     43 C         -74.5564   24.5584  -75.9697 C.2       6 UNK         0.5007 
     44 O         -73.4562   25.0703  -76.1919 O.2       6 UNK        -0.5032 
     45 CA        -74.9954   24.3363  -74.5059 C.3       5 UNK         0.0783 
     46 C46       -75.3219   25.7135  -73.8811 C.3       11 UNK        -0.0857 
     47 S47       -75.5888   25.6738  -72.0782 S.3       11 UNK        -0.2512 
     48 C48       -77.3168   26.2520  -71.9236 C.3       11 UNK         0.0225 
     49 N         -76.1215   23.4006  -74.4041 N.am      5 UNK        -0.4615 
     50 C         -76.0508   22.0817  -74.6257 C.2       4 UNK         0.5053 
     51 O         -74.9895   21.4782  -74.7817 O.2       4 UNK        -0.5105 
     52 CA        -77.3778   21.3096  -74.7713 C.3       4 UNK         0.0263 
     53 CB        -77.8690   20.7719  -73.4123 C.3       4 UNK        -0.1981 
     54 N         -78.4266   22.0544  -75.4941 N.am      4 UNK        -0.4224 
     55 C         -79.0991   23.1396  -75.0853 C.2       3 UNK         0.4895 
     56 O         -78.9815   23.6283  -73.9608 O.2       3 UNK        -0.5091 
     57 CA        -80.0258   23.8069  -76.1198 C.3       3 UNK         0.0250 
     58 CB        -81.4343   23.1964  -76.0475 C.3       3 UNK        -0.1996 
     59 N         -80.1256   25.2551  -75.9138 N.am      3 UNK        -0.4254 
     60 C         -79.0987   26.1180  -75.9469 C.2       2 UNK         0.5004 
     61 O         -77.9639   25.8122  -76.3216 O.2       2 UNK        -0.5226 
     62 CA        -79.3552   27.5670  -75.4854 C.3       2 UNK         0.0269 
     63 CB        -79.1408   28.5556  -76.6418 C.3       2 UNK        -0.1926 
     64 N         -80.6642   27.8321  -74.8768 N.am      2 UNK        -0.4687 
     65 C         -81.1219   27.3041  -73.7328 C.2       1 UNK         0.5165 
     66 O         -80.5291   26.4472  -73.0778 O.2       1 UNK        -0.5079 
     67 H67       -85.6924   24.8083  -74.2657 H         1 UNK         0.0900 
     68 H68       -84.9696   24.6914  -72.6599 H         1 UNK         0.0900 
     69 H69       -84.2888   23.7703  -74.0024 H         1 UNK         0.0900 
     70 H70       -83.7209   26.4733  -72.1502 H         1 UNK         0.2959 
     71 H71       -82.9218   28.4624  -73.9969 H         1 UNK         0.1079 
     72 H72       -83.3561   28.7330  -71.4728 H         1 UNK         0.0837 
     73 H73       -81.7892   28.0433  -71.1754 H         1 UNK         0.0837 
     74 H74       -80.0267   31.3052  -70.7404 H         1 UNK         0.0685 
     75 H75       -80.4859   29.7521  -70.1024 H         1 UNK         0.0685 
     76 H76       -79.3083   27.7154  -70.8497 H         1 UNK         0.1434 
     77 H77       -75.8804   28.1571  -73.3812 H         1 UNK         0.1329 
     78 H78       -78.4559   31.4915  -72.6761 H         1 UNK         0.1335 
     79 H79       -76.7232   30.8242  -75.0217 H         1 UNK         0.0680 
     80 H80       -76.2353   31.8355  -73.6831 H         1 UNK         0.0680 
     81 H81       -74.2359   29.7277  -71.9644 H         1 UNK         0.1032 
     82 H82       -74.2102   31.4516  -72.2189 H         1 UNK         0.1032 
     83 H83       -71.9381   31.3140  -73.2078 H         1 UNK         0.0461 
     84 H84       -70.2116   30.5515  -69.8357 H         1 UNK         0.3453 
     85 H85       -70.0917   29.6392  -71.3210 H         1 UNK         0.3453 
     86 H86       -71.1158   29.4350  -74.0040 H         1 UNK         0.2984 
     87 H87       -70.0771   27.1081  -73.5272 H         1 UNK         0.0554 
     88 H88       -70.9362   24.7605  -73.7226 H         1 UNK         0.0847 
     89 H89       -72.4933   25.2905  -73.0853 H         1 UNK         0.0847 
     90 H90       -71.0560   25.3881  -72.0871 H         1 UNK         0.0847 
     91 H91       -72.1803   26.3324  -75.3792 H         1 UNK         0.3141 
     92 H92       -71.1591   28.7173  -77.8768 H         1 UNK         0.0743 
     93 H93       -71.1158   25.6605  -77.6225 H         1 UNK         0.0784 
     94 H94       -71.1402   26.5723  -79.1289 H         1 UNK         0.0784 
     95 H95       -69.7505   26.6803  -78.0593 H         1 UNK         0.0784 
     96 H96       -73.3178   26.7746  -77.1798 H         1 UNK         0.3213 
     97 H97       -75.7370   28.6866  -76.9864 H         1 UNK         0.0855 
     98 H98       -75.9242   30.0730  -79.0020 H         1 UNK         0.0814 
     99 H99       -77.0217   28.7146  -79.1774 H         1 UNK         0.0814 
    100 H100      -75.4878   28.7267  -80.0419 H         1 UNK         0.0814 
    101 H101      -76.1418   26.5071  -77.1431 H         1 UNK         0.3105 
    102 H102      -76.2968   24.1639  -78.8059 H         1 UNK         0.0547 
    103 H103      -74.2525   23.5571  -80.0512 H         1 UNK         0.0837 
    104 H104      -73.2545   23.8091  -78.6276 H         1 UNK         0.0837 
    105 H105      -74.4219   22.4886  -78.6695 H         1 UNK         0.0837 
    106 H106      -76.3587   23.9426  -76.6101 H         1 UNK         0.3020 
    107 H107      -74.1445   23.8979  -73.9809 H         1 UNK         0.1245 
    108 H108      -76.1979   26.1422  -74.3698 H         1 UNK         0.0781 
    109 H109      -74.5047   26.4175  -74.0533 H         1 UNK         0.0781 
    110 H110      -77.6743   25.9380  -70.9420 H         1 UNK         0.0836 
    111 H111      -77.9348   25.7236  -72.6501 H         1 UNK         0.0836 
    112 H112      -77.0386   23.7994  -74.2261 H         1 UNK         0.3022 
    113 H113      -77.1599   20.4428  -75.3977 H         1 UNK         0.0747 
    114 H114      -78.7945   20.2064  -73.5200 H         1 UNK         0.0793 
    115 H115      -77.1287   20.1023  -72.9726 H         1 UNK         0.0793 
    116 H116      -78.0447   21.5706  -72.6913 H         1 UNK         0.0793 
    117 H117      -78.5953   21.7303  -76.4371 H         1 UNK         0.3047 
    118 H118      -79.6159   23.6430  -77.1185 H         1 UNK         0.0822 
    119 H119      -82.1011   23.6446  -76.7846 H         1 UNK         0.0807 
    120 H120      -81.8815   23.3392  -75.0627 H         1 UNK         0.0807 
    121 H121      -81.4095   22.1235  -76.2424 H         1 UNK         0.0807 
    122 H122      -81.0122   25.5993  -75.5713 H         1 UNK         0.2946 
    123 H123      -78.6031   27.7724  -74.7243 H         1 UNK         0.1144 
    124 H124      -78.1622   28.4147  -77.0978 H         1 UNK         0.0793 
    125 H125      -79.1855   29.5882  -76.2950 H         1 UNK         0.0793 
    126 H126      -79.8873   28.4271  -77.4264 H         1 UNK         0.0793 
    127 H127      -81.2430   28.5064  -75.3564 H         1 UNK         0.2896 
@<TRIPOS>BOND
     1    1    2 1    
     2    1   67 1    
     3    1   68 1    
     4    1   69 1    
     5    2    3 2    
     6    2    4 am   BACKBONE|DICT|INTERRES
     7    4    5 1    
     8    4   70 1    
     9    5    6 1    
    10    5   65 1    
    11    5   71 1    
    12    6    7 1    
    13    6   72 1    
    14    6   73 1    
    15    7    8 1    
    16    8    9 1    
    17    8   74 1    
    18    8   75 1    
    19    9   10 ar   
    20    9   14 ar   
    21   10   11 ar   
    22   10   76 1    
    23   11   12 ar   
    24   11   48 1    
    25   12   13 ar   
    26   12   77 1    
    27   13   14 ar   
    28   13   15 1    
    29   14   78 1    
    30   15   16 1    
    31   15   79 1    
    32   15   80 1    
    33   16   17 1    
    34   17   18 1    
    35   17   81 1    
    36   17   82 1    
    37   18   19 1    
    38   18   22 1    
    39   18   83 1    
    40   19   20 am   BACKBONE|DICT|INTERRES
    41   19   21 2    
    42   20   84 1    
    43   20   85 1    
    44   22   23 am   BACKBONE|DICT|INTERRES
    45   22   86 1    
    46   23   24 2    
    47   23   25 1    
    48   25   26 1    
    49   25   27 1    
    50   25   87 1    
    51   26   88 1    
    52   26   89 1    
    53   26   90 1    
    54   27   28 am   BACKBONE|DICT|INTERRES
    55   27   91 1    
    56   28   29 2    
    57   28   30 1    
    58   30   31 1    
    59   30   32 1    
    60   30   92 1    
    61   31   93 1    
    62   31   94 1    
    63   31   95 1    
    64   32   33 am   BACKBONE|DICT|INTERRES
    65   32   96 1    
    66   33   34 2    
    67   33   35 1    
    68   35   36 1    
    69   35   37 1    
    70   35   97 1    
    71   36   98 1    
    72   36   99 1    
    73   36  100 1    
    74   37   38 am   BACKBONE|DICT|INTERRES
    75   37  101 1    
    76   38   39 2    
    77   38   40 1    
    78   40   41 1    
    79   40   42 1    
    80   40  102 1    
    81   41  103 1    
    82   41  104 1    
    83   41  105 1    
    84   42   43 am   BACKBONE|DICT|INTERRES
    85   42  106 1    
    86   43   44 2    
    87   43   45 1    
    88   45   46 1    
    89   45   49 1    
    90   45  107 1    
    91   46   47 1    
    92   46  108 1    
    93   46  109 1    
    94   47   48 1    
    95   48  110 1    
    96   48  111 1    
    97   49   50 am   BACKBONE|DICT|INTERRES
    98   49  112 1    
    99   50   51 2    
   100   50   52 1    
   101   52   53 1    
   102   52   54 1    
   103   52  113 1    
   104   53  114 1    
   105   53  115 1    
   106   53  116 1    
   107   54   55 am   BACKBONE|DICT|INTERRES
   108   54  117 1    
   109   55   56 2    
   110   55   57 1    
   111   57   58 1    
   112   57   59 1    
   113   57  118 1    
   114   58  119 1    
   115   58  120 1    
   116   58  121 1    
   117   59   60 am   BACKBONE|DICT|INTERRES
   118   59  122 1    
   119   60   61 2    
   120   60   62 1    
   121   62   63 1    
   122   62   64 1    
   123   62  123 1    
   124   63  124 1    
   125   63  125 1    
   126   63  126 1    
   127   64   65 am   BACKBONE|DICT|INTERRES
   128   64  127 1    
   129   65   66 2    
@<TRIPOS>SUBSTRUCTURE
     1 UNK         1 GROUP             0       ****    0 ROOT    
