@<TRIPOS>MOLECULE
3R135
127   129    1
SMALL
USER_CHARGES


@<TRIPOS>ATOM
      1 CA        -85.3051   26.8552  -72.8004 C.3       0 UNK        -0.1998 
      2 C         -84.7574   27.4670  -74.0808 C.2       0 UNK         0.4909 
      3 O         -85.3033   27.2255  -75.1577 O.2       0 UNK        -0.5240 
      4 N         -83.6827   28.2588  -73.9717 N.am      1 UNK        -0.4739 
      5 CA        -82.9919   28.9070  -75.0951 C.3       1 UNK         0.0864 
      6 C6        -82.1475   30.1301  -74.6461 C.3       11 UNK        -0.0881 
      7 S7        -81.1510   29.8622  -73.1391 S.3       11 UNK        -0.2682 
      8 C8        -79.5083   29.5548  -73.8472 C.3       11 UNK         0.0289 
      9 C9        -78.4985   29.2689  -72.7486 C.ar      11 UNK        -0.0687 
     10 C10       -78.4421   28.0012  -72.1622 C.ar      11 UNK        -0.0823 
     11 C11       -77.5484   27.7421  -71.1188 C.ar      11 UNK        -0.0830 
     12 C12       -76.6987   28.7581  -70.6715 C.ar      11 UNK        -0.1021 
     13 C13       -76.7362   30.0256  -71.2600 C.ar      11 UNK        -0.0753 
     14 C14       -77.6392   30.2757  -72.2980 C.ar      11 UNK        -0.0933 
     15 C15       -75.8287   31.1372  -70.7524 C.3       11 UNK         0.0166 
     16 S16       -74.3397   31.3295  -71.7800 S.3       11 UNK        -0.2615 
     17 C17       -73.3506   29.8877  -71.2533 C.3       11 UNK        -0.0865 
     18 CA        -72.0991   29.6704  -72.1421 C.3       10 UNK         0.0862 
     19 C         -71.1717   28.5727  -71.5436 C.2       10 UNK         0.5551 
     20 N         -70.8803   27.4795  -72.2375 N.am      10 UNK        -0.7319 
     21 O         -70.6974   28.7228  -70.4201 O.2       10 UNK        -0.5018 
     22 N         -72.4835   29.4414  -73.5403 N.am      10 UNK        -0.4509 
     23 C         -71.7361   29.7200  -74.6104 C.2       10 UNK         0.4899 
     24 O         -70.6130   30.2266  -74.5686 O.2       10 UNK        -0.4839 
     25 CA        -72.3714   29.3698  -75.9668 C.3       9 UNK         0.0222 
     26 CB        -72.3197   30.5695  -76.9280 C.3       9 UNK        -0.1966 
     27 N         -71.7832   28.2005  -76.6258 N.am      9 UNK        -0.4218 
     28 C         -71.5160   27.0065  -76.0776 C.2       9 UNK         0.5020 
     29 O         -71.6300   26.7353  -74.8812 O.2       9 UNK        -0.5274 
     30 CA        -71.1638   25.8961  -77.0733 C.3       8 UNK         0.0270 
     31 CB        -70.3875   24.7367  -76.4216 C.3       8 UNK        -0.1976 
     32 N         -72.4377   25.3996  -77.5790 N.am      8 UNK        -0.4313 
     33 C         -73.0193   25.7931  -78.7171 C.2       8 UNK         0.5041 
     34 O         -72.4563   26.4710  -79.5779 O.2       8 UNK        -0.5577 
     35 CA        -74.4992   25.4149  -78.8915 C.3       7 UNK         0.0284 
     36 CB        -74.6637   23.9066  -79.1403 C.3       7 UNK        -0.1958 
     37 N         -75.3152   25.8224  -77.7428 N.am      7 UNK        -0.4454 
     38 C         -75.5482   27.0938  -77.3769 C.2       7 UNK         0.5089 
     39 O         -75.1179   28.0756  -77.9815 O.2       7 UNK        -0.5125 
     40 CA        -76.4202   27.3058  -76.1307 C.3       6 UNK         0.0408 
     41 CB        -77.9047   27.1773  -76.4998 C.3       6 UNK        -0.1791 
     42 N         -76.0819   26.3312  -75.0929 N.am      6 UNK        -0.4762 
     43 C         -75.1591   26.5373  -74.1410 C.2       6 UNK         0.5007 
     44 O         -74.6246   27.6289  -73.9451 O.2       6 UNK        -0.5032 
     45 CA        -74.7291   25.3355  -73.2682 C.3       5 UNK         0.0783 
     46 C46       -75.2011   25.4765  -71.7983 C.3       11 UNK        -0.0857 
     47 S47       -76.9662   25.0568  -71.5600 S.3       11 UNK        -0.2512 
     48 C48       -77.5322   26.3776  -70.4458 C.3       11 UNK         0.0225 
     49 N         -75.1154   24.0343  -73.8216 N.am      5 UNK        -0.4615 
     50 C         -74.5998   23.4554  -74.9100 C.2       4 UNK         0.5053 
     51 O         -73.6873   23.9355  -75.5771 O.2       4 UNK        -0.5105 
     52 CA        -75.2528   22.1397  -75.3646 C.3       4 UNK         0.0263 
     53 CB        -74.5460   20.9400  -74.7147 C.3       4 UNK        -0.1981 
     54 N         -76.6956   22.0614  -75.1014 N.am      4 UNK        -0.4224 
     55 C         -77.6148   22.9231  -75.5612 C.2       3 UNK         0.4895 
     56 O         -77.3318   23.9195  -76.2322 O.2       3 UNK        -0.5091 
     57 CA        -79.0818   22.5834  -75.2396 C.3       3 UNK         0.0250 
     58 CB        -79.3210   22.3188  -73.7354 C.3       3 UNK        -0.1996 
     59 N         -80.0216   23.5704  -75.7911 N.am      3 UNK        -0.4254 
     60 C         -80.3547   24.7800  -75.3142 C.2       2 UNK         0.5004 
     61 O         -79.9691   25.2430  -74.2387 O.2       2 UNK        -0.5226 
     62 CA        -81.2862   25.6172  -76.2084 C.3       2 UNK         0.0269 
     63 CB        -82.4319   24.7867  -76.8275 C.3       2 UNK        -0.1926 
     64 N         -81.8614   26.7346  -75.4575 N.am      2 UNK        -0.4687 
     65 C         -82.1949   27.9217  -75.9811 C.2       1 UNK         0.5165 
     66 O         -81.9331   28.2442  -77.1412 O.2       1 UNK        -0.5079 
     67 H67       -84.7283   27.1558  -71.9258 H         1 UNK         0.0900 
     68 H68       -85.2818   25.7677  -72.8647 H         1 UNK         0.0900 
     69 H69       -86.3383   27.1660  -72.6482 H         1 UNK         0.0900 
     70 H70       -83.2717   28.4311  -73.0640 H         1 UNK         0.2959 
     71 H71       -83.7703   29.2986  -75.7546 H         1 UNK         0.1079 
     72 H72       -82.8256   30.9557  -74.4245 H         1 UNK         0.0837 
     73 H73       -81.5141   30.4969  -75.4566 H         1 UNK         0.0837 
     74 H74       -79.1961   30.4132  -74.4441 H         1 UNK         0.0685 
     75 H75       -79.5732   28.7066  -74.5250 H         1 UNK         0.0685 
     76 H76       -79.1062   27.2193  -72.5072 H         1 UNK         0.1434 
     77 H77       -76.0131   28.5665  -69.8575 H         1 UNK         0.1329 
     78 H78       -77.6805   31.2593  -72.7455 H         1 UNK         0.1335 
     79 H79       -75.5376   30.9569  -69.7163 H         1 UNK         0.0680 
     80 H80       -76.3768   32.0806  -70.7524 H         1 UNK         0.0680 
     81 H81       -73.0656   30.0412  -70.2106 H         1 UNK         0.1032 
     82 H82       -73.9758   28.9942  -71.2758 H         1 UNK         0.1032 
     83 H83       -71.5154   30.5924  -72.1088 H         1 UNK         0.0461 
     84 H84       -71.2461   27.3386  -73.1776 H         1 UNK         0.3453 
     85 H85       -70.2728   26.7871  -71.8312 H         1 UNK         0.3453 
     86 H86       -73.3549   28.9321  -73.6795 H         1 UNK         0.2984 
     87 H87       -73.4247   29.1359  -75.8021 H         1 UNK         0.0554 
     88 H88       -72.8859   30.3726  -77.8389 H         1 UNK         0.0847 
     89 H89       -71.2960   30.8160  -77.2126 H         1 UNK         0.0847 
     90 H90       -72.7527   31.4579  -76.4661 H         1 UNK         0.0847 
     91 H91       -71.6814   28.2744  -77.6284 H         1 UNK         0.3141 
     92 H92       -70.5524   26.3123  -77.8768 H         1 UNK         0.0743 
     93 H93       -70.9519   24.2695  -75.6133 H         1 UNK         0.0784 
     94 H94       -70.1503   23.9626  -77.1513 H         1 UNK         0.0784 
     95 H95       -69.4453   25.0892  -76.0005 H         1 UNK         0.0784 
     96 H96       -72.9907   24.8729  -76.9005 H         1 UNK         0.3213 
     97 H97       -74.8764   25.9454  -79.7686 H         1 UNK         0.0855 
     98 H98       -74.2879   23.3129  -78.3073 H         1 UNK         0.0814 
     99 H99       -74.1142   23.5990  -80.0310 H         1 UNK         0.0814 
    100 H100      -75.7095   23.6410  -79.2969 H         1 UNK         0.0814 
    101 H101      -75.7490   25.0849  -77.2008 H         1 UNK         0.3105 
    102 H102      -76.2545   28.3173  -75.7533 H         1 UNK         0.0547 
    103 H103      -78.2369   28.0353  -77.0852 H         1 UNK         0.0837 
    104 H104      -78.1058   26.2839  -77.0913 H         1 UNK         0.0837 
    105 H105      -78.5244   27.1236  -75.6083 H         1 UNK         0.0837 
    106 H106      -76.4935   25.4090  -75.1910 H         1 UNK         0.3020 
    107 H107      -73.6363   25.3685  -73.2647 H         1 UNK         0.1245 
    108 H108      -74.9913   26.4779  -71.4186 H         1 UNK         0.0781 
    109 H109      -74.6197   24.8017  -71.1685 H         1 UNK         0.0781 
    110 H110      -76.9051   26.3856  -69.5529 H         1 UNK         0.0836 
    111 H111      -78.5413   26.1396  -70.1066 H         1 UNK         0.0836 
    112 H112      -75.8825   23.5782  -73.3490 H         1 UNK         0.3022 
    113 H113      -75.1186   22.0665  -76.4451 H         1 UNK         0.0747 
    114 H114      -74.9238   19.9954  -75.1064 H         1 UNK         0.0793 
    115 H115      -73.4735   20.9645  -74.9143 H         1 UNK         0.0793 
    116 H116      -74.6756   20.9320  -73.6316 H         1 UNK         0.0793 
    117 H117      -77.0094   21.2636  -74.5676 H         1 UNK         0.3047 
    118 H118      -79.2985   21.6556  -75.7714 H         1 UNK         0.0822 
    119 H119      -80.3809   22.1816  -73.5208 H         1 UNK         0.0807 
    120 H120      -78.9587   23.1386  -73.1142 H         1 UNK         0.0807 
    121 H121      -78.8113   21.4144  -73.4029 H         1 UNK         0.0807 
    122 H122      -80.3912   23.3236  -76.6982 H         1 UNK         0.2946 
    123 H123      -80.6640   26.0115  -77.0149 H         1 UNK         0.1144 
    124 H124      -83.1065   25.4148  -77.4099 H         1 UNK         0.0793 
    125 H125      -83.0262   24.2899  -76.0594 H         1 UNK         0.0793 
    126 H126      -82.0581   24.0200  -77.5064 H         1 UNK         0.0793 
    127 H127      -82.0294   26.5637  -74.4753 H         1 UNK         0.2896 
@<TRIPOS>BOND
     1    1    2 1    
     2    1   67 1    
     3    1   68 1    
     4    1   69 1    
     5    2    3 2    
     6    2    4 am   BACKBONE|DICT|INTERRES
     7    4    5 1    
     8    4   70 1    
     9    5    6 1    
    10    5   65 1    
    11    5   71 1    
    12    6    7 1    
    13    6   72 1    
    14    6   73 1    
    15    7    8 1    
    16    8    9 1    
    17    8   74 1    
    18    8   75 1    
    19    9   10 ar   
    20    9   14 ar   
    21   10   11 ar   
    22   10   76 1    
    23   11   12 ar   
    24   11   48 1    
    25   12   13 ar   
    26   12   77 1    
    27   13   14 ar   
    28   13   15 1    
    29   14   78 1    
    30   15   16 1    
    31   15   79 1    
    32   15   80 1    
    33   16   17 1    
    34   17   18 1    
    35   17   81 1    
    36   17   82 1    
    37   18   19 1    
    38   18   22 1    
    39   18   83 1    
    40   19   20 am   BACKBONE|DICT|INTERRES
    41   19   21 2    
    42   20   84 1    
    43   20   85 1    
    44   22   23 am   BACKBONE|DICT|INTERRES
    45   22   86 1    
    46   23   24 2    
    47   23   25 1    
    48   25   26 1    
    49   25   27 1    
    50   25   87 1    
    51   26   88 1    
    52   26   89 1    
    53   26   90 1    
    54   27   28 am   BACKBONE|DICT|INTERRES
    55   27   91 1    
    56   28   29 2    
    57   28   30 1    
    58   30   31 1    
    59   30   32 1    
    60   30   92 1    
    61   31   93 1    
    62   31   94 1    
    63   31   95 1    
    64   32   33 am   BACKBONE|DICT|INTERRES
    65   32   96 1    
    66   33   34 2    
    67   33   35 1    
    68   35   36 1    
    69   35   37 1    
    70   35   97 1    
    71   36   98 1    
    72   36   99 1    
    73   36  100 1    
    74   37   38 am   BACKBONE|DICT|INTERRES
    75   37  101 1    
    76   38   39 2    
    77   38   40 1    
    78   40   41 1    
    79   40   42 1    
    80   40  102 1    
    81   41  103 1    
    82   41  104 1    
    83   41  105 1    
    84   42   43 am   BACKBONE|DICT|INTERRES
    85   42  106 1    
    86   43   44 2    
    87   43   45 1    
    88   45   46 1    
    89   45   49 1    
    90   45  107 1    
    91   46   47 1    
    92   46  108 1    
    93   46  109 1    
    94   47   48 1    
    95   48  110 1    
    96   48  111 1    
    97   49   50 am   BACKBONE|DICT|INTERRES
    98   49  112 1    
    99   50   51 2    
   100   50   52 1    
   101   52   53 1    
   102   52   54 1    
   103   52  113 1    
   104   53  114 1    
   105   53  115 1    
   106   53  116 1    
   107   54   55 am   BACKBONE|DICT|INTERRES
   108   54  117 1    
   109   55   56 2    
   110   55   57 1    
   111   57   58 1    
   112   57   59 1    
   113   57  118 1    
   114   58  119 1    
   115   58  120 1    
   116   58  121 1    
   117   59   60 am   BACKBONE|DICT|INTERRES
   118   59  122 1    
   119   60   61 2    
   120   60   62 1    
   121   62   63 1    
   122   62   64 1    
   123   62  123 1    
   124   63  124 1    
   125   63  125 1    
   126   63  126 1    
   127   64   65 am   BACKBONE|DICT|INTERRES
   128   64  127 1    
   129   65   66 2    
@<TRIPOS>SUBSTRUCTURE
     1 UNK         1 GROUP             0       ****    0 ROOT    
