@<TRIPOS>MOLECULE
3R135
127   129    1
SMALL
USER_CHARGES


@<TRIPOS>ATOM
      1 CA        -84.5820   24.7223  -74.5938 C.3       0 UNK        -0.1998 
      2 C         -83.5177   25.7606  -74.2745 C.2       0 UNK         0.4909 
      3 O         -82.3353   25.4975  -74.4969 O.2       0 UNK        -0.5240 
      4 N         -83.9384   26.9287  -73.7634 N.am      1 UNK        -0.4739 
      5 CA        -83.1302   28.0943  -73.3672 C.3       1 UNK         0.0864 
      6 C6        -82.6074   28.0415  -71.8995 C.3       11 UNK        -0.0881 
      7 S7        -81.6617   26.5525  -71.4186 S.3       11 UNK        -0.2682 
      8 C8        -80.7047   27.1680  -70.0014 C.3       11 UNK         0.0289 
      9 C9        -79.2397   27.3662  -70.3579 C.ar      11 UNK        -0.0687 
     10 C10       -78.2916   26.4157  -69.9644 C.ar      11 UNK        -0.0823 
     11 C11       -76.9366   26.6114  -70.2420 C.ar      11 UNK        -0.0830 
     12 C12       -76.5358   27.7713  -70.9078 C.ar      11 UNK        -0.1021 
     13 C13       -77.4746   28.7023  -71.3626 C.ar      11 UNK        -0.0753 
     14 C14       -78.8274   28.5003  -71.0666 C.ar      11 UNK        -0.0933 
     15 C15       -77.0380   29.9250  -72.1664 C.3       11 UNK         0.0166 
     16 S16       -75.9934   29.4959  -73.6061 S.3       11 UNK        -0.2615 
     17 C17       -74.3163   29.5243  -72.8791 C.3       11 UNK        -0.0865 
     18 CA        -73.3258   30.3806  -73.7096 C.3       10 UNK         0.0862 
     19 C         -72.0869   30.7886  -72.8539 C.2       10 UNK         0.5551 
     20 N         -70.8641   30.3963  -73.1908 N.am      10 UNK        -0.7319 
     21 O         -72.2426   31.4889  -71.8566 O.2       10 UNK        -0.5018 
     22 N         -73.0041   29.7199  -74.9841 N.am      10 UNK        -0.4509 
     23 C         -72.4553   30.3208  -76.0473 C.2       10 UNK         0.4899 
     24 O         -72.2783   31.5375  -76.1287 O.2       10 UNK        -0.4839 
     25 CA        -72.0110   29.3953  -77.2009 C.3       9 UNK         0.0222 
     26 CB        -70.9760   30.0595  -78.1330 C.3       9 UNK        -0.1966 
     27 N         -71.5243   28.0839  -76.7452 N.am      9 UNK        -0.4218 
     28 C         -70.5263   27.8433  -75.8762 C.2       9 UNK         0.5020 
     29 O         -69.8506   28.7325  -75.3573 O.2       9 UNK        -0.5274 
     30 CA        -70.2524   26.3838  -75.4676 C.3       8 UNK         0.0270 
     31 CB        -70.5010   26.1937  -73.9602 C.3       8 UNK        -0.1976 
     32 N         -71.0777   25.4275  -76.2076 N.am      8 UNK        -0.4313 
     33 C         -70.7183   24.8448  -77.3608 C.2       8 UNK         0.5041 
     34 O         -69.6132   24.9911  -77.8843 O.2       8 UNK        -0.5577 
     35 CA        -71.7684   23.9654  -78.0689 C.3       7 UNK         0.0284 
     36 CB        -71.5321   22.4815  -77.7442 C.3       7 UNK        -0.1958 
     37 N         -73.1549   24.3147  -77.7433 N.am      7 UNK        -0.4454 
     38 C         -73.7353   25.4947  -78.0040 C.2       7 UNK         0.5089 
     39 O         -73.1744   26.4156  -78.5967 O.2       7 UNK        -0.5125 
     40 CA        -75.1535   25.7121  -77.4515 C.3       6 UNK         0.0408 
     41 CB        -76.1972   25.3822  -78.5282 C.3       6 UNK        -0.1791 
     42 N         -75.4497   24.9618  -76.2227 N.am      6 UNK        -0.4762 
     43 C         -74.7806   25.0747  -75.0618 C.2       6 UNK         0.5007 
     44 O         -73.7680   25.7687  -74.9436 O.2       6 UNK        -0.5032 
     45 CA        -75.2866   24.2612  -73.8433 C.3       5 UNK         0.0783 
     46 C46       -75.1503   25.0823  -72.5297 C.3       11 UNK        -0.0857 
     47 S47       -75.7626   24.2128  -71.0418 S.3       11 UNK        -0.2512 
     48 C48       -75.8996   25.5730  -69.8326 C.3       11 UNK         0.0225 
     49 N         -76.6217   23.6718  -74.0493 N.am      5 UNK        -0.4615 
     50 C         -77.7812   24.3378  -74.1207 C.2       4 UNK         0.5053 
     51 O         -77.8860   25.5613  -74.0230 O.2       4 UNK        -0.5105 
     52 CA        -79.0416   23.4892  -74.3617 C.3       4 UNK         0.0263 
     53 CB        -79.8059   23.2741  -73.0462 C.3       4 UNK        -0.1981 
     54 N         -79.9111   24.1686  -75.3183 N.am      4 UNK        -0.4224 
     55 C         -79.6107   24.3471  -76.6135 C.2       3 UNK         0.4895 
     56 O         -78.7356   23.7155  -77.2063 O.2       3 UNK        -0.5091 
     57 CA        -80.3550   25.4804  -77.3360 C.3       3 UNK         0.0250 
     58 CB        -81.7408   25.0233  -77.8191 C.3       3 UNK        -0.1996 
     59 N         -80.4825   26.6216  -76.4264 N.am      3 UNK        -0.4254 
     60 C         -79.5373   27.5578  -76.2524 C.2       2 UNK         0.5004 
     61 O         -78.5924   27.7111  -77.0275 O.2       2 UNK        -0.5226 
     62 CA        -79.6172   28.4499  -74.9943 C.3       2 UNK         0.0269 
     63 CB        -79.4475   29.9458  -75.3336 C.3       2 UNK        -0.1926 
     64 N         -80.7972   28.2243  -74.1466 N.am      2 UNK        -0.4687 
     65 C         -82.0799   28.4925  -74.4277 C.2       1 UNK         0.5165 
     66 O         -82.4623   29.0080  -75.4795 O.2       1 UNK        -0.5079 
     67 H67       -84.5962   24.5167  -75.6636 H         1 UNK         0.0900 
     68 H68       -85.5774   25.0517  -74.2969 H         1 UNK         0.0900 
     69 H69       -84.3630   23.7919  -74.0707 H         1 UNK         0.0900 
     70 H70       -84.9332   27.0568  -73.6414 H         1 UNK         0.2959 
     71 H71       -83.8362   28.9267  -73.3885 H         1 UNK         0.1079 
     72 H72       -83.4624   28.0972  -71.2241 H         1 UNK         0.0837 
     73 H73       -82.0182   28.9344  -71.6825 H         1 UNK         0.0837 
     74 H74       -80.7995   26.4494  -69.1858 H         1 UNK         0.0685 
     75 H75       -81.1273   28.1008  -69.6254 H         1 UNK         0.0685 
     76 H76       -78.6062   25.5238  -69.4399 H         1 UNK         0.1434 
     77 H77       -75.4868   27.9199  -71.1085 H         1 UNK         0.1329 
     78 H78       -79.5621   29.2253  -71.3879 H         1 UNK         0.1335 
     79 H79       -77.9144   30.4534  -72.5434 H         1 UNK         0.0680 
     80 H80       -76.5231   30.6302  -71.5132 H         1 UNK         0.0680 
     81 H81       -74.3861   29.9029  -71.8578 H         1 UNK         0.1032 
     82 H82       -73.9501   28.4995  -72.7925 H         1 UNK         0.1032 
     83 H83       -73.8252   31.3212  -73.9507 H         1 UNK         0.0461 
     84 H84       -70.0870   30.6825  -72.6176 H         1 UNK         0.3453 
     85 H85       -70.6909   29.8346  -74.0188 H         1 UNK         0.3453 
     86 H86       -73.1239   28.7178  -75.0073 H         1 UNK         0.2984 
     87 H87       -72.9071   29.1972  -77.7907 H         1 UNK         0.0554 
     88 H88       -71.3770   30.9699  -78.5802 H         1 UNK         0.0847 
     89 H89       -70.6962   29.3957  -78.9510 H         1 UNK         0.0847 
     90 H90       -70.0668   30.3336  -77.5968 H         1 UNK         0.0847 
     91 H91       -72.0082   27.2900  -77.1507 H         1 UNK         0.3141 
     92 H92       -69.1963   26.1852  -75.6617 H         1 UNK         0.0743 
     93 H93       -69.8429   26.8347  -73.3719 H         1 UNK         0.0784 
     94 H94       -71.5257   26.4415  -73.6817 H         1 UNK         0.0784 
     95 H95       -70.3084   25.1659  -73.6523 H         1 UNK         0.0784 
     96 H96       -72.0180   25.2846  -75.8508 H         1 UNK         0.3213 
     97 H97       -71.6367   24.1074  -79.1438 H         1 UNK         0.0855 
     98 H98       -71.6720   22.2723  -76.6829 H         1 UNK         0.0814 
     99 H99       -70.5150   22.1833  -78.0031 H         1 UNK         0.0814 
    100 H100      -72.2083   21.8380  -78.3073 H         1 UNK         0.0814 
    101 H101      -73.6984   23.6219  -77.2492 H         1 UNK         0.3105 
    102 H102      -75.2442   26.7732  -77.2094 H         1 UNK         0.0547 
    103 H103      -75.9778   25.9024  -79.4616 H         1 UNK         0.0837 
    104 H104      -76.2326   24.3145  -78.7476 H         1 UNK         0.0837 
    105 H105      -77.1928   25.6960  -78.2178 H         1 UNK         0.0837 
    106 H106      -76.2767   24.3807  -76.2393 H         1 UNK         0.3020 
    107 H107      -74.6018   23.4156  -73.7627 H         1 UNK         0.1245 
    108 H108      -75.6884   26.0213  -72.6456 H         1 UNK         0.0781 
    109 H109      -74.1078   25.3518  -72.3507 H         1 UNK         0.0781 
    110 H110      -76.1656   25.1546  -68.8608 H         1 UNK         0.0836 
    111 H111      -74.9212   26.0385  -69.7031 H         1 UNK         0.0836 
    112 H112      -76.6390   22.6652  -74.1363 H         1 UNK         0.3022 
    113 H113      -78.7606   22.5176  -74.7734 H         1 UNK         0.0747 
    114 H114      -79.1890   22.7470  -72.3174 H         1 UNK         0.0793 
    115 H115      -80.7084   22.6828  -73.2017 H         1 UNK         0.0793 
    116 H116      -80.1013   24.2231  -72.5964 H         1 UNK         0.0793 
    117 H117      -80.6708   24.7173  -74.9220 H         1 UNK         0.3047 
    118 H118      -79.7706   25.7730  -78.2110 H         1 UNK         0.0822 
    119 H119      -82.2844   25.8406  -78.2931 H         1 UNK         0.0807 
    120 H120      -82.3546   24.6399  -77.0046 H         1 UNK         0.0807 
    121 H121      -81.6472   24.2245  -78.5558 H         1 UNK         0.0807 
    122 H122      -81.2119   26.5484  -75.7239 H         1 UNK         0.2946 
    123 H123      -78.7619   28.1563  -74.3820 H         1 UNK         0.1144 
    124 H124      -78.4744   30.1306  -75.7904 H         1 UNK         0.0793 
    125 H125      -79.5063   30.5666  -74.4402 H         1 UNK         0.0793 
    126 H126      -80.2051   30.2929  -76.0364 H         1 UNK         0.0793 
    127 H127      -80.6178   27.7236  -73.2839 H         1 UNK         0.2896 
@<TRIPOS>BOND
     1    1    2 1    
     2    1   67 1    
     3    1   68 1    
     4    1   69 1    
     5    2    3 2    
     6    2    4 am   BACKBONE|DICT|INTERRES
     7    4    5 1    
     8    4   70 1    
     9    5    6 1    
    10    5   65 1    
    11    5   71 1    
    12    6    7 1    
    13    6   72 1    
    14    6   73 1    
    15    7    8 1    
    16    8    9 1    
    17    8   74 1    
    18    8   75 1    
    19    9   10 ar   
    20    9   14 ar   
    21   10   11 ar   
    22   10   76 1    
    23   11   12 ar   
    24   11   48 1    
    25   12   13 ar   
    26   12   77 1    
    27   13   14 ar   
    28   13   15 1    
    29   14   78 1    
    30   15   16 1    
    31   15   79 1    
    32   15   80 1    
    33   16   17 1    
    34   17   18 1    
    35   17   81 1    
    36   17   82 1    
    37   18   19 1    
    38   18   22 1    
    39   18   83 1    
    40   19   20 am   BACKBONE|DICT|INTERRES
    41   19   21 2    
    42   20   84 1    
    43   20   85 1    
    44   22   23 am   BACKBONE|DICT|INTERRES
    45   22   86 1    
    46   23   24 2    
    47   23   25 1    
    48   25   26 1    
    49   25   27 1    
    50   25   87 1    
    51   26   88 1    
    52   26   89 1    
    53   26   90 1    
    54   27   28 am   BACKBONE|DICT|INTERRES
    55   27   91 1    
    56   28   29 2    
    57   28   30 1    
    58   30   31 1    
    59   30   32 1    
    60   30   92 1    
    61   31   93 1    
    62   31   94 1    
    63   31   95 1    
    64   32   33 am   BACKBONE|DICT|INTERRES
    65   32   96 1    
    66   33   34 2    
    67   33   35 1    
    68   35   36 1    
    69   35   37 1    
    70   35   97 1    
    71   36   98 1    
    72   36   99 1    
    73   36  100 1    
    74   37   38 am   BACKBONE|DICT|INTERRES
    75   37  101 1    
    76   38   39 2    
    77   38   40 1    
    78   40   41 1    
    79   40   42 1    
    80   40  102 1    
    81   41  103 1    
    82   41  104 1    
    83   41  105 1    
    84   42   43 am   BACKBONE|DICT|INTERRES
    85   42  106 1    
    86   43   44 2    
    87   43   45 1    
    88   45   46 1    
    89   45   49 1    
    90   45  107 1    
    91   46   47 1    
    92   46  108 1    
    93   46  109 1    
    94   47   48 1    
    95   48  110 1    
    96   48  111 1    
    97   49   50 am   BACKBONE|DICT|INTERRES
    98   49  112 1    
    99   50   51 2    
   100   50   52 1    
   101   52   53 1    
   102   52   54 1    
   103   52  113 1    
   104   53  114 1    
   105   53  115 1    
   106   53  116 1    
   107   54   55 am   BACKBONE|DICT|INTERRES
   108   54  117 1    
   109   55   56 2    
   110   55   57 1    
   111   57   58 1    
   112   57   59 1    
   113   57  118 1    
   114   58  119 1    
   115   58  120 1    
   116   58  121 1    
   117   59   60 am   BACKBONE|DICT|INTERRES
   118   59  122 1    
   119   60   61 2    
   120   60   62 1    
   121   62   63 1    
   122   62   64 1    
   123   62  123 1    
   124   63  124 1    
   125   63  125 1    
   126   63  126 1    
   127   64   65 am   BACKBONE|DICT|INTERRES
   128   64  127 1    
   129   65   66 2    
@<TRIPOS>SUBSTRUCTURE
     1 UNK         1 GROUP             0       ****    0 ROOT    
