@<TRIPOS>MOLECULE
3R135
127   129    1
SMALL
USER_CHARGES


@<TRIPOS>ATOM
      1 CA        -85.2204   27.8326  -70.4871 C.3       0 UNK        -0.1998 
      2 C         -85.0439   27.7289  -71.9944 C.2       0 UNK         0.4909 
      3 O         -85.8121   27.0288  -72.6546 O.2       0 UNK        -0.5240 
      4 N         -84.0389   28.4233  -72.5434 N.am      1 UNK        -0.4739 
      5 CA        -83.6868   28.4197  -73.9700 C.3       1 UNK         0.0864 
      6 C6        -82.7855   29.6246  -74.3502 C.3       11 UNK        -0.0881 
      7 S7        -81.3544   29.8662  -73.2392 S.3       11 UNK        -0.2682 
      8 C8        -79.9934   29.2883  -74.2928 C.3       11 UNK         0.0289 
      9 C9        -78.7705   28.9488  -73.4582 C.ar      11 UNK        -0.0687 
     10 C10       -78.7207   27.7350  -72.7719 C.ar      11 UNK        -0.0823 
     11 C11       -77.6038   27.3916  -72.0078 C.ar      11 UNK        -0.0830 
     12 C12       -76.5145   28.2673  -71.9514 C.ar      11 UNK        -0.1021 
     13 C13       -76.5513   29.4898  -72.6335 C.ar      11 UNK        -0.0753 
     14 C14       -77.6899   29.8300  -73.3742 C.ar      11 UNK        -0.0933 
     15 C15       -75.3729   30.4518  -72.5482 C.3       11 UNK         0.0166 
     16 S16       -74.7560   30.9319  -74.1936 S.3       11 UNK        -0.2615 
     17 C17       -73.2950   31.9325  -73.7546 C.3       11 UNK        -0.0865 
     18 CA        -71.9765   31.3003  -74.2687 C.3       10 UNK         0.0862 
     19 C         -70.7751   32.2441  -73.9886 C.2       10 UNK         0.5551 
     20 N         -70.4538   33.1315  -74.9197 N.am      10 UNK        -0.7319 
     21 O         -70.1661   32.2088  -72.9207 O.2       10 UNK        -0.5018 
     22 N         -71.7776   29.9514  -73.7198 N.am      10 UNK        -0.4509 
     23 C         -70.8530   29.0778  -74.1335 C.2       10 UNK         0.4899 
     24 O         -70.0768   29.2952  -75.0650 O.2       10 UNK        -0.4839 
     25 CA        -70.7722   27.7337  -73.3904 C.3       9 UNK         0.0222 
     26 CB        -71.6534   27.6494  -72.1245 C.3       9 UNK        -0.1966 
     27 N         -71.1429   26.6630  -74.3152 N.am      9 UNK        -0.4218 
     28 C         -70.2722   25.8667  -74.9512 C.2       9 UNK         0.5020 
     29 O         -69.0527   25.9023  -74.7761 O.2       9 UNK        -0.5274 
     30 CA        -70.8427   24.8365  -75.9418 C.3       8 UNK         0.0270 
     31 CB        -71.2011   23.5293  -75.2168 C.3       8 UNK        -0.1976 
     32 N         -72.0013   25.3122  -76.7025 N.am      8 UNK        -0.4313 
     33 C         -71.9439   26.2441  -77.6658 C.2       8 UNK         0.5041 
     34 O         -70.9145   26.8416  -77.9811 O.2       8 UNK        -0.5577 
     35 CA        -73.2433   26.5455  -78.4271 C.3       7 UNK         0.0284 
     36 CB        -73.5016   25.4764  -79.5023 C.3       7 UNK        -0.1958 
     37 N         -74.3879   26.6107  -77.5199 N.am      7 UNK        -0.4454 
     38 C         -74.8928   27.7441  -77.0130 C.2       7 UNK         0.5089 
     39 O         -74.4970   28.8679  -77.3229 O.2       7 UNK        -0.5125 
     40 CA        -76.0426   27.6065  -75.9946 C.3       6 UNK         0.0408 
     41 CB        -77.3966   27.7467  -76.7067 C.3       6 UNK        -0.1791 
     42 N         -76.0305   26.3482  -75.2446 N.am      6 UNK        -0.4762 
     43 C         -75.0379   25.9315  -74.4451 C.2       6 UNK         0.5007 
     44 O         -74.0217   26.5856  -74.2154 O.2       6 UNK        -0.5032 
     45 CA        -75.1381   24.4926  -73.9010 C.3       5 UNK         0.0783 
     46 C46       -75.6718   24.4322  -72.4505 C.3       11 UNK        -0.0857 
     47 S47       -77.4782   24.6318  -72.2937 S.3       11 UNK        -0.2512 
     48 C48       -77.6101   26.0928  -71.2163 C.3       11 UNK         0.0225 
     49 N         -75.8344   23.5807  -74.8190 N.am      5 UNK        -0.4615 
     50 C         -75.4110   23.2821  -76.0534 C.2       4 UNK         0.5053 
     51 O         -74.3844   23.7537  -76.5445 O.2       4 UNK        -0.5105 
     52 CA        -76.2833   22.3494  -76.9057 C.3       4 UNK         0.0263 
     53 CB        -76.1925   20.8895  -76.4192 C.3       4 UNK        -0.1981 
     54 N         -77.6741   22.8021  -77.0558 N.am      4 UNK        -0.4224 
     55 C         -78.6475   22.8478  -76.1349 C.2       3 UNK         0.4895 
     56 O         -78.5055   22.5060  -74.9587 O.2       3 UNK        -0.5091 
     57 CA        -80.0196   23.3195  -76.6469 C.3       3 UNK         0.0250 
     58 CB        -80.6880   22.2170  -77.4873 C.3       3 UNK        -0.1996 
     59 N         -80.9225   23.6793  -75.5533 N.am      3 UNK        -0.4254 
     60 C         -80.8993   24.8416  -74.8903 C.2       2 UNK         0.5004 
     61 O         -80.1143   25.7594  -75.1358 O.2       2 UNK        -0.5226 
     62 CA        -81.9262   24.9779  -73.7494 C.3       2 UNK         0.0269 
     63 CB        -81.3424   24.4547  -72.4266 C.3       2 UNK        -0.1926 
     64 N         -82.4240   26.3429  -73.5459 N.am      2 UNK        -0.4687 
     65 C         -83.1087   27.0663  -74.4459 C.2       1 UNK         0.5165 
     66 O         -83.3443   26.6856  -75.5940 O.2       1 UNK        -0.5079 
     67 H67       -84.4775   28.4886  -70.0337 H         1 UNK         0.0900 
     68 H68       -85.1271   26.8478  -70.0301 H         1 UNK         0.0900 
     69 H69       -86.2088   28.2260  -70.2512 H         1 UNK         0.0900 
     70 H70       -83.4378   28.9873  -71.9579 H         1 UNK         0.2959 
     71 H71       -84.6214   28.5428  -74.5226 H         1 UNK         0.1079 
     72 H72       -82.4536   29.5554  -75.3882 H         1 UNK         0.0837 
     73 H73       -83.3810   30.5376  -74.3027 H         1 UNK         0.0837 
     74 H74       -79.7581   30.0517  -75.0359 H         1 UNK         0.0685 
     75 H75       -80.3083   28.4032  -74.8465 H         1 UNK         0.0685 
     76 H76       -79.5598   27.0572  -72.8333 H         1 UNK         0.1434 
     77 H77       -75.6447   28.0029  -71.3659 H         1 UNK         0.1329 
     78 H78       -77.7261   30.7753  -73.8980 H         1 UNK         0.1335 
     79 H79       -74.5552   30.0047  -71.9809 H         1 UNK         0.0680 
     80 H80       -75.6822   31.3454  -72.0043 H         1 UNK         0.0680 
     81 H81       -73.4351   32.9232  -74.1914 H         1 UNK         0.1032 
     82 H82       -73.2541   32.0855  -72.6743 H         1 UNK         0.1032 
     83 H83       -72.0630   31.1875  -75.3518 H         1 UNK         0.0461 
     84 H84       -69.6875   33.7645  -74.7505 H         1 UNK         0.3453 
     85 H85       -70.9536   33.1738  -75.7944 H         1 UNK         0.3453 
     86 H86       -72.3764   29.6932  -72.9516 H         1 UNK         0.2984 
     87 H87       -69.7358   27.6154  -73.0683 H         1 UNK         0.0554 
     88 H88       -71.5400   26.6811  -71.6369 H         1 UNK         0.0847 
     89 H89       -72.7136   27.7818  -72.3403 H         1 UNK         0.0847 
     90 H90       -71.3649   28.4067  -71.3942 H         1 UNK         0.0847 
     91 H91       -72.1365   26.5809  -74.5185 H         1 UNK         0.3141 
     92 H92       -70.0537   24.6084  -76.6620 H         1 UNK         0.0743 
     93 H93       -70.3226   23.1031  -74.7304 H         1 UNK         0.0784 
     94 H94       -71.9518   23.6878  -74.4443 H         1 UNK         0.0784 
     95 H95       -71.5833   22.7795  -75.9100 H         1 UNK         0.0784 
     96 H96       -72.8780   24.8162  -76.5573 H         1 UNK         0.3213 
     97 H97       -73.1159   27.5037  -78.9360 H         1 UNK         0.0855 
     98 H98       -73.6327   24.4836  -79.0703 H         1 UNK         0.0814 
     99 H99       -72.6662   25.4191  -80.2013 H         1 UNK         0.0814 
    100 H100      -74.3940   25.7085  -80.0836 H         1 UNK         0.0814 
    101 H101      -74.7502   25.7275  -77.1828 H         1 UNK         0.3105 
    102 H102      -75.9446   28.4171  -75.2725 H         1 UNK         0.0547 
    103 H103      -77.5338   26.9804  -77.4704 H         1 UNK         0.0837 
    104 H104      -78.2249   27.6660  -76.0042 H         1 UNK         0.0837 
    105 H105      -77.4798   28.7177  -77.1966 H         1 UNK         0.0837 
    106 H106      -76.8362   25.7478  -75.3481 H         1 UNK         0.3020 
    107 H107      -74.1080   24.1372  -73.8544 H         1 UNK         0.1245 
    108 H108      -75.1534   25.1604  -71.8238 H         1 UNK         0.0781 
    109 H109      -75.4238   23.4595  -72.0231 H         1 UNK         0.0781 
    110 H110      -76.8195   26.0825  -70.4646 H         1 UNK         0.0836 
    111 H111      -78.5466   26.0269  -70.6607 H         1 UNK         0.0836 
    112 H112      -76.7237   23.1982  -74.5073 H         1 UNK         0.3022 
    113 H113      -75.8628   22.3738  -77.9127 H         1 UNK         0.0747 
    114 H114      -76.7572   20.2206  -77.0687 H         1 UNK         0.0793 
    115 H115      -75.1576   20.5449  -76.4207 H         1 UNK         0.0793 
    116 H116      -76.5701   20.7671  -75.4038 H         1 UNK         0.0793 
    117 H117      -77.9086   23.1181  -77.9871 H         1 UNK         0.3047 
    118 H118      -79.8681   24.1990  -77.2771 H         1 UNK         0.0822 
    119 H119      -80.0773   21.9491  -78.3504 H         1 UNK         0.0807 
    120 H120      -81.6557   22.5421  -77.8702 H         1 UNK         0.0807 
    121 H121      -80.8459   21.3068  -76.9068 H         1 UNK         0.0807 
    122 H122      -81.5590   22.9576  -75.2483 H         1 UNK         0.2946 
    123 H123      -82.7923   24.3637  -74.0064 H         1 UNK         0.1144 
    124 H124      -80.9557   23.4408  -72.5407 H         1 UNK         0.0793 
    125 H125      -82.0987   24.4252  -71.6421 H         1 UNK         0.0793 
    126 H126      -80.5186   25.0744  -72.0749 H         1 UNK         0.0793 
    127 H127      -82.2774   26.7497  -72.6343 H         1 UNK         0.2896 
@<TRIPOS>BOND
     1    1    2 1    
     2    1   67 1    
     3    1   68 1    
     4    1   69 1    
     5    2    3 2    
     6    2    4 am   BACKBONE|DICT|INTERRES
     7    4    5 1    
     8    4   70 1    
     9    5    6 1    
    10    5   65 1    
    11    5   71 1    
    12    6    7 1    
    13    6   72 1    
    14    6   73 1    
    15    7    8 1    
    16    8    9 1    
    17    8   74 1    
    18    8   75 1    
    19    9   10 ar   
    20    9   14 ar   
    21   10   11 ar   
    22   10   76 1    
    23   11   12 ar   
    24   11   48 1    
    25   12   13 ar   
    26   12   77 1    
    27   13   14 ar   
    28   13   15 1    
    29   14   78 1    
    30   15   16 1    
    31   15   79 1    
    32   15   80 1    
    33   16   17 1    
    34   17   18 1    
    35   17   81 1    
    36   17   82 1    
    37   18   19 1    
    38   18   22 1    
    39   18   83 1    
    40   19   20 am   BACKBONE|DICT|INTERRES
    41   19   21 2    
    42   20   84 1    
    43   20   85 1    
    44   22   23 am   BACKBONE|DICT|INTERRES
    45   22   86 1    
    46   23   24 2    
    47   23   25 1    
    48   25   26 1    
    49   25   27 1    
    50   25   87 1    
    51   26   88 1    
    52   26   89 1    
    53   26   90 1    
    54   27   28 am   BACKBONE|DICT|INTERRES
    55   27   91 1    
    56   28   29 2    
    57   28   30 1    
    58   30   31 1    
    59   30   32 1    
    60   30   92 1    
    61   31   93 1    
    62   31   94 1    
    63   31   95 1    
    64   32   33 am   BACKBONE|DICT|INTERRES
    65   32   96 1    
    66   33   34 2    
    67   33   35 1    
    68   35   36 1    
    69   35   37 1    
    70   35   97 1    
    71   36   98 1    
    72   36   99 1    
    73   36  100 1    
    74   37   38 am   BACKBONE|DICT|INTERRES
    75   37  101 1    
    76   38   39 2    
    77   38   40 1    
    78   40   41 1    
    79   40   42 1    
    80   40  102 1    
    81   41  103 1    
    82   41  104 1    
    83   41  105 1    
    84   42   43 am   BACKBONE|DICT|INTERRES
    85   42  106 1    
    86   43   44 2    
    87   43   45 1    
    88   45   46 1    
    89   45   49 1    
    90   45  107 1    
    91   46   47 1    
    92   46  108 1    
    93   46  109 1    
    94   47   48 1    
    95   48  110 1    
    96   48  111 1    
    97   49   50 am   BACKBONE|DICT|INTERRES
    98   49  112 1    
    99   50   51 2    
   100   50   52 1    
   101   52   53 1    
   102   52   54 1    
   103   52  113 1    
   104   53  114 1    
   105   53  115 1    
   106   53  116 1    
   107   54   55 am   BACKBONE|DICT|INTERRES
   108   54  117 1    
   109   55   56 2    
   110   55   57 1    
   111   57   58 1    
   112   57   59 1    
   113   57  118 1    
   114   58  119 1    
   115   58  120 1    
   116   58  121 1    
   117   59   60 am   BACKBONE|DICT|INTERRES
   118   59  122 1    
   119   60   61 2    
   120   60   62 1    
   121   62   63 1    
   122   62   64 1    
   123   62  123 1    
   124   63  124 1    
   125   63  125 1    
   126   63  126 1    
   127   64   65 am   BACKBONE|DICT|INTERRES
   128   64  127 1    
   129   65   66 2    
@<TRIPOS>SUBSTRUCTURE
     1 UNK         1 GROUP             0       ****    0 ROOT    
