@<TRIPOS>MOLECULE
3R135
127   129    1
SMALL
USER_CHARGES


@<TRIPOS>ATOM
      1 CA        -85.0730   30.5941  -76.8380 C.3       0 UNK        -0.1998 
      2 C         -83.6716   30.0025  -76.8161 C.2       0 UNK         0.4909 
      3 O         -83.0108   29.9569  -77.8541 O.2       0 UNK        -0.5240 
      4 N         -83.2128   29.5524  -75.6401 N.am      1 UNK        -0.4739 
      5 CA        -81.9005   28.9236  -75.4373 C.3       1 UNK         0.0864 
      6 C6        -81.5398   28.8798  -73.9307 C.3       11 UNK        -0.0881 
      7 S7        -79.7568   28.6567  -73.6397 S.3       11 UNK        -0.2682 
      8 C8        -79.7025   28.6541  -71.8252 C.3       11 UNK         0.0289 
      9 C9        -78.3852   28.0860  -71.3208 C.ar      11 UNK        -0.0687 
     10 C10       -78.3221   26.7684  -70.8584 C.ar      11 UNK        -0.0823 
     11 C11       -77.1208   26.2410  -70.3759 C.ar      11 UNK        -0.0830 
     12 C12       -75.9745   27.0398  -70.3629 C.ar      11 UNK        -0.1021 
     13 C13       -76.0250   28.3589  -70.8241 C.ar      11 UNK        -0.0753 
     14 C14       -77.2324   28.8774  -71.3032 C.ar      11 UNK        -0.0933 
     15 C15       -74.7747   29.2222  -70.7880 C.3       11 UNK         0.0166 
     16 S16       -73.6619   28.8063  -72.1607 S.3       11 UNK        -0.2615 
     17 C17       -72.2276   29.8800  -71.7989 C.3       11 UNK        -0.0865 
     18 CA        -72.0164   31.0015  -72.8511 C.3       10 UNK         0.0862 
     19 C         -70.7491   31.8337  -72.4967 C.2       10 UNK         0.5551 
     20 N         -69.6473   31.7064  -73.2269 N.am      10 UNK        -0.7319 
     21 O         -70.7696   32.6024  -71.5387 O.2       10 UNK        -0.5018 
     22 N         -72.0416   30.4509  -74.2128 N.am      10 UNK        -0.4509 
     23 C         -72.0491   31.1332  -75.3635 C.2       10 UNK         0.4899 
     24 O         -72.0593   32.3628  -75.4310 O.2       10 UNK        -0.4839 
     25 CA        -72.0790   30.2968  -76.6601 C.3       9 UNK         0.0222 
     26 CB        -71.1761   30.8896  -77.7625 C.3       9 UNK        -0.1966 
     27 N         -71.8058   28.8651  -76.4535 N.am      9 UNK        -0.4218 
     28 C         -70.6580   28.2955  -76.0436 C.2       9 UNK         0.5020 
     29 O         -69.6284   28.9303  -75.8108 O.2       9 UNK        -0.5274 
     30 CA        -70.6570   26.7730  -75.7906 C.3       8 UNK         0.0270 
     31 CB        -70.5439   26.4850  -74.2834 C.3       8 UNK        -0.1976 
     32 N         -71.8429   26.0871  -76.3075 N.am      8 UNK        -0.4313 
     33 C         -72.1082   25.8791  -77.6051 C.2       8 UNK         0.5041 
     34 O         -71.3151   26.1365  -78.5113 O.2       8 UNK        -0.5577 
     35 CA        -73.5020   25.3263  -77.9625 C.3       7 UNK         0.0284 
     36 CB        -73.4071   23.8401  -78.3415 C.3       7 UNK        -0.1958 
     37 N         -74.5108   25.4942  -76.9081 N.am      7 UNK        -0.4454 
     38 C         -74.9306   26.6688  -76.4085 C.2       7 UNK         0.5089 
     39 O         -74.5069   27.7584  -76.7949 O.2       7 UNK        -0.5125 
     40 CA        -75.9623   26.6302  -75.2655 C.3       6 UNK         0.0408 
     41 CB        -77.3576   26.9598  -75.8128 C.3       6 UNK        -0.1791 
     42 N         -76.0074   25.3459  -74.5587 N.am      6 UNK        -0.4762 
     43 C         -75.0066   24.8505  -73.8123 C.2       6 UNK         0.5007 
     44 O         -73.9393   25.4403  -73.6396 O.2       6 UNK        -0.5032 
     45 CA        -75.1752   23.4339  -73.2206 C.3       5 UNK         0.0783 
     46 C46       -75.3968   23.4520  -71.6831 C.3       11 UNK        -0.0857 
     47 S47       -77.1477   23.5883  -71.1716 S.3       11 UNK        -0.2512 
     48 C48       -77.0794   24.8202  -69.8372 C.3       11 UNK         0.0225 
     49 N         -76.1809   22.6213  -73.9132 N.am      5 UNK        -0.4615 
     50 C         -76.1138   22.1953  -75.1795 C.2       4 UNK         0.5053 
     51 O         -75.1573   22.4115  -75.9223 O.2       4 UNK        -0.5105 
     52 CA        -77.3421   21.4378  -75.7140 C.3       4 UNK         0.0263 
     53 CB        -77.1899   19.9280  -75.4700 C.3       4 UNK        -0.1981 
     54 N         -78.6133   21.9025  -75.1403 N.am      4 UNK        -0.4224 
     55 C         -79.1216   23.1280  -75.3298 C.2       3 UNK         0.4895 
     56 O         -78.5572   24.0064  -75.9835 O.2       3 UNK        -0.5091 
     57 CA        -80.4613   23.4392  -74.6552 C.3       3 UNK         0.0250 
     58 CB        -80.2442   24.0566  -73.2630 C.3       3 UNK        -0.1996 
     59 N         -81.1946   24.3843  -75.4926 N.am      3 UNK        -0.4254 
     60 C         -82.5161   24.3835  -75.6928 C.2       2 UNK         0.5004 
     61 O         -83.2910   23.6058  -75.1318 O.2       2 UNK        -0.5226 
     62 CA        -83.0615   25.4466  -76.6658 C.3       2 UNK         0.0269 
     63 CB        -84.5346   25.2034  -77.0459 C.3       2 UNK        -0.1926 
     64 N         -82.9387   26.7930  -76.1044 N.am      2 UNK        -0.4687 
     65 C         -81.8157   27.5252  -76.0927 C.2       1 UNK         0.5165 
     66 O         -80.7560   27.1406  -76.5896 O.2       1 UNK        -0.5079 
     67 H67       -85.7079   30.0287  -77.5197 H         1 UNK         0.0900 
     68 H68       -85.0385   31.6274  -77.1823 H         1 UNK         0.0900 
     69 H69       -85.5376   30.5808  -75.8522 H         1 UNK         0.0900 
     70 H70       -83.7991   29.6272  -74.8205 H         1 UNK         0.2959 
     71 H71       -81.1650   29.5535  -75.9437 H         1 UNK         0.1079 
     72 H72       -81.8247   29.8185  -73.4522 H         1 UNK         0.0837 
     73 H73       -82.0959   28.0944  -73.4145 H         1 UNK         0.0837 
     74 H74       -80.5376   28.0697  -71.4354 H         1 UNK         0.0685 
     75 H75       -79.8375   29.6720  -71.4566 H         1 UNK         0.0685 
     76 H76       -79.2098   26.1505  -70.8689 H         1 UNK         0.1434 
     77 H77       -75.0408   26.6398  -69.9915 H         1 UNK         0.1329 
     78 H78       -77.2775   29.8961  -71.6635 H         1 UNK         0.1335 
     79 H79       -74.2568   29.0727  -69.8393 H         1 UNK         0.0680 
     80 H80       -75.0337   30.2809  -70.8404 H         1 UNK         0.0680 
     81 H81       -72.3365   30.3128  -70.8024 H         1 UNK         0.1032 
     82 H82       -71.3448   29.2393  -71.7486 H         1 UNK         0.1032 
     83 H83       -72.8630   31.6868  -72.7802 H         1 UNK         0.0461 
     84 H84       -69.6282   31.0726  -74.0118 H         1 UNK         0.3453 
     85 H85       -68.8308   32.2485  -72.9928 H         1 UNK         0.3453 
     86 H86       -72.0658   29.4444  -74.2666 H         1 UNK         0.2984 
     87 H87       -73.1075   30.3471  -77.0201 H         1 UNK         0.0554 
     88 H88       -71.2144   30.2900  -78.6719 H         1 UNK         0.0847 
     89 H89       -70.1348   30.9542  -77.4458 H         1 UNK         0.0847 
     90 H90       -71.4944   31.8984  -78.0280 H         1 UNK         0.0847 
     91 H91       -72.6153   28.2655  -76.5929 H         1 UNK         0.3141 
     92 H92       -69.7767   26.3609  -76.2884 H         1 UNK         0.0743 
     93 H93       -69.6530   26.9507  -73.8594 H         1 UNK         0.0784 
     94 H94       -71.4052   26.8667  -73.7326 H         1 UNK         0.0784 
     95 H95       -70.4711   25.4149  -74.0882 H         1 UNK         0.0784 
     96 H96       -72.5505   25.8351  -75.6287 H         1 UNK         0.3213 
     97 H97       -73.8512   25.8807  -78.8361 H         1 UNK         0.0855 
     98 H98       -72.7113   23.6909  -79.1684 H         1 UNK         0.0814 
     99 H99       -74.3734   23.4460  -78.6571 H         1 UNK         0.0814 
    100 H100      -73.0545   23.2337  -77.5061 H         1 UNK         0.0814 
    101 H101      -74.9029   24.6442  -76.5209 H         1 UNK         0.3105 
    102 H102      -75.6892   27.3965  -74.5365 H         1 UNK         0.0547 
    103 H103      -77.6061   26.3559  -76.6861 H         1 UNK         0.0837 
    104 H104      -78.1309   26.7873  -75.0658 H         1 UNK         0.0837 
    105 H105      -77.4208   28.0057  -76.1148 H         1 UNK         0.0837 
    106 H106      -76.8376   24.7837  -74.7002 H         1 UNK         0.3020 
    107 H107      -74.2133   22.9460  -73.3957 H         1 UNK         0.1245 
    108 H108      -74.8029   24.2362  -71.2090 H         1 UNK         0.0781 
    109 H109      -75.0219   22.5176  -71.2629 H         1 UNK         0.0781 
    110 H110      -76.1934   24.6548  -69.2220 H         1 UNK         0.0836 
    111 H111      -77.9350   24.6660  -69.1781 H         1 UNK         0.0836 
    112 H112      -77.0093   22.4128  -73.3744 H         1 UNK         0.3022 
    113 H113      -77.3827   21.6065  -76.7924 H         1 UNK         0.0747 
    114 H114      -78.0072   19.3677  -75.9244 H         1 UNK         0.0793 
    115 H115      -76.2623   19.5545  -75.9064 H         1 UNK         0.0793 
    116 H116      -77.1684   19.6895  -74.4058 H         1 UNK         0.0793 
    117 H117      -79.1310   21.2370  -74.5835 H         1 UNK         0.3047 
    118 H118      -81.0280   22.5103  -74.5593 H         1 UNK         0.0822 
    119 H119      -79.7549   23.3478  -72.5951 H         1 UNK         0.0807 
    120 H120      -81.1911   24.3336  -72.7994 H         1 UNK         0.0807 
    121 H121      -79.6214   24.9517  -73.3098 H         1 UNK         0.0807 
    122 H122      -80.6196   25.0596  -75.9882 H         1 UNK         0.2946 
    123 H123      -82.4689   25.3848  -77.5819 H         1 UNK         0.1144 
    124 H124      -84.6663   24.2121  -77.4818 H         1 UNK         0.0793 
    125 H125      -84.8777   25.9282  -77.7844 H         1 UNK         0.0793 
    126 H126      -85.1941   25.2694  -76.1796 H         1 UNK         0.0793 
    127 H127      -83.7632   27.1782  -75.6672 H         1 UNK         0.2896 
@<TRIPOS>BOND
     1    1    2 1    
     2    1   67 1    
     3    1   68 1    
     4    1   69 1    
     5    2    3 2    
     6    2    4 am   BACKBONE|DICT|INTERRES
     7    4    5 1    
     8    4   70 1    
     9    5    6 1    
    10    5   65 1    
    11    5   71 1    
    12    6    7 1    
    13    6   72 1    
    14    6   73 1    
    15    7    8 1    
    16    8    9 1    
    17    8   74 1    
    18    8   75 1    
    19    9   10 ar   
    20    9   14 ar   
    21   10   11 ar   
    22   10   76 1    
    23   11   12 ar   
    24   11   48 1    
    25   12   13 ar   
    26   12   77 1    
    27   13   14 ar   
    28   13   15 1    
    29   14   78 1    
    30   15   16 1    
    31   15   79 1    
    32   15   80 1    
    33   16   17 1    
    34   17   18 1    
    35   17   81 1    
    36   17   82 1    
    37   18   19 1    
    38   18   22 1    
    39   18   83 1    
    40   19   20 am   BACKBONE|DICT|INTERRES
    41   19   21 2    
    42   20   84 1    
    43   20   85 1    
    44   22   23 am   BACKBONE|DICT|INTERRES
    45   22   86 1    
    46   23   24 2    
    47   23   25 1    
    48   25   26 1    
    49   25   27 1    
    50   25   87 1    
    51   26   88 1    
    52   26   89 1    
    53   26   90 1    
    54   27   28 am   BACKBONE|DICT|INTERRES
    55   27   91 1    
    56   28   29 2    
    57   28   30 1    
    58   30   31 1    
    59   30   32 1    
    60   30   92 1    
    61   31   93 1    
    62   31   94 1    
    63   31   95 1    
    64   32   33 am   BACKBONE|DICT|INTERRES
    65   32   96 1    
    66   33   34 2    
    67   33   35 1    
    68   35   36 1    
    69   35   37 1    
    70   35   97 1    
    71   36   98 1    
    72   36   99 1    
    73   36  100 1    
    74   37   38 am   BACKBONE|DICT|INTERRES
    75   37  101 1    
    76   38   39 2    
    77   38   40 1    
    78   40   41 1    
    79   40   42 1    
    80   40  102 1    
    81   41  103 1    
    82   41  104 1    
    83   41  105 1    
    84   42   43 am   BACKBONE|DICT|INTERRES
    85   42  106 1    
    86   43   44 2    
    87   43   45 1    
    88   45   46 1    
    89   45   49 1    
    90   45  107 1    
    91   46   47 1    
    92   46  108 1    
    93   46  109 1    
    94   47   48 1    
    95   48  110 1    
    96   48  111 1    
    97   49   50 am   BACKBONE|DICT|INTERRES
    98   49  112 1    
    99   50   51 2    
   100   50   52 1    
   101   52   53 1    
   102   52   54 1    
   103   52  113 1    
   104   53  114 1    
   105   53  115 1    
   106   53  116 1    
   107   54   55 am   BACKBONE|DICT|INTERRES
   108   54  117 1    
   109   55   56 2    
   110   55   57 1    
   111   57   58 1    
   112   57   59 1    
   113   57  118 1    
   114   58  119 1    
   115   58  120 1    
   116   58  121 1    
   117   59   60 am   BACKBONE|DICT|INTERRES
   118   59  122 1    
   119   60   61 2    
   120   60   62 1    
   121   62   63 1    
   122   62   64 1    
   123   62  123 1    
   124   63  124 1    
   125   63  125 1    
   126   63  126 1    
   127   64   65 am   BACKBONE|DICT|INTERRES
   128   64  127 1    
   129   65   66 2    
@<TRIPOS>SUBSTRUCTURE
     1 UNK         1 GROUP             0       ****    0 ROOT    
