@<TRIPOS>MOLECULE
3R135
127   129    1
SMALL
USER_CHARGES


@<TRIPOS>ATOM
      1 CA        -83.9714   24.6111  -74.3491 C.3       0 UNK        -0.1998 
      2 C         -82.9615   25.7412  -74.2248 C.2       0 UNK         0.4909 
      3 O         -82.7477   26.4779  -75.1883 O.2       0 UNK        -0.5240 
      4 N         -82.3283   25.8758  -73.0504 N.am      1 UNK        -0.4739 
      5 CA        -81.2926   26.8721  -72.7449 C.3       1 UNK         0.0864 
      6 C6        -80.8638   26.8041  -71.2519 C.3       11 UNK        -0.0881 
      7 S7        -80.6187   28.4134  -70.4125 S.3       11 UNK        -0.2682 
      8 C8        -79.5845   29.4266  -71.5352 C.3       11 UNK         0.0289 
      9 C9        -78.1847   28.8960  -71.8563 C.ar      11 UNK        -0.0687 
     10 C10       -77.5977   27.8244  -71.1722 C.ar      11 UNK        -0.0823 
     11 C11       -76.3427   27.3398  -71.5472 C.ar      11 UNK        -0.0830 
     12 C12       -75.6377   27.9691  -72.5763 C.ar      11 UNK        -0.1021 
     13 C13       -76.1975   29.0513  -73.2580 C.ar      11 UNK        -0.0753 
     14 C14       -77.4704   29.5040  -72.8943 C.ar      11 UNK        -0.0933 
     15 C15       -75.4412   29.6949  -74.4141 C.3       11 UNK         0.0166 
     16 S16       -75.2731   31.4976  -74.2346 S.3       11 UNK        -0.2615 
     17 C17       -74.2016   31.6320  -72.7634 C.3       11 UNK        -0.0865 
     18 CA        -72.7771   32.1116  -73.1340 C.3       10 UNK         0.0862 
     19 C         -71.9958   32.5640  -71.8708 C.2       10 UNK         0.5551 
     20 N         -72.1436   33.8195  -71.4709 N.am      10 UNK        -0.7319 
     21 O         -71.2918   31.7850  -71.2307 O.2       10 UNK        -0.5018 
     22 N         -72.0412   31.0845  -73.8835 N.am      10 UNK        -0.4509 
     23 C         -70.9999   31.3310  -74.6822 C.2       10 UNK         0.4899 
     24 O         -70.6371   32.4672  -74.9902 O.2       10 UNK        -0.4839 
     25 CA        -70.2088   30.1327  -75.2430 C.3       9 UNK         0.0222 
     26 CB        -68.9269   29.9075  -74.4172 C.3       9 UNK        -0.1966 
     27 N         -70.9417   28.8675  -75.4152 N.am      9 UNK        -0.4218 
     28 C         -71.4834   28.0564  -74.4975 C.2       9 UNK         0.5020 
     29 O         -71.6118   28.3501  -73.3080 O.2       9 UNK        -0.5274 
     30 CA        -71.9680   26.6851  -75.0100 C.3       8 UNK         0.0270 
     31 CB        -72.2033   25.6850  -73.8633 C.3       8 UNK        -0.1976 
     32 N         -73.1777   26.7736  -75.8329 N.am      8 UNK        -0.4313 
     33 C         -73.2360   27.2771  -77.0733 C.2       8 UNK         0.5041 
     34 O         -72.2624   27.7629  -77.6553 O.2       8 UNK        -0.5577 
     35 CA        -74.6080   27.2134  -77.7734 C.3       7 UNK         0.0284 
     36 CB        -74.5484   27.6620  -79.2485 C.3       7 UNK        -0.1958 
     37 N         -75.2567   25.8999  -77.6672 N.am      7 UNK        -0.4454 
     38 C         -74.7802   24.7069  -78.0548 C.2       7 UNK         0.5089 
     39 O         -73.6634   24.5267  -78.5434 O.2       7 UNK        -0.5125 
     40 CA        -75.7437   23.5204  -77.8547 C.3       6 UNK         0.0408 
     41 CB        -75.1432   22.1621  -78.2757 C.3       6 UNK        -0.1791 
     42 N         -76.2797   23.4704  -76.4886 N.am      6 UNK        -0.4762 
     43 C         -75.6009   23.2553  -75.3507 C.2       6 UNK         0.5007 
     44 O         -74.3947   23.0138  -75.3111 O.2       6 UNK        -0.5032 
     45 CA        -76.3835   23.3387  -74.0210 C.3       5 UNK         0.0783 
     46 C46       -75.9612   24.5992  -73.2329 C.3       11 UNK        -0.0857 
     47 S47       -76.5617   24.5889  -71.5122 S.3       11 UNK        -0.2512 
     48 C48       -75.7765   26.1030  -70.8681 C.3       11 UNK         0.0225 
     49 N         -77.8379   23.2845  -74.2111 N.am      5 UNK        -0.4615 
     50 C         -78.5261   22.1683  -74.4839 C.2       4 UNK         0.5053 
     51 O         -78.0143   21.0530  -74.5807 O.2       4 UNK        -0.5105 
     52 CA        -80.0350   22.3308  -74.7143 C.3       4 UNK         0.0263 
     53 CB        -80.7849   22.4702  -73.3789 C.3       4 UNK        -0.1981 
     54 N         -80.3164   23.4850  -75.5705 N.am      4 UNK        -0.4224 
     55 C         -80.2549   23.4628  -76.9105 C.2       3 UNK         0.4895 
     56 O         -80.0037   22.4509  -77.5648 O.2       3 UNK        -0.5091 
     57 CA        -80.5114   24.7836  -77.6585 C.3       3 UNK         0.0250 
     58 CB        -81.9633   24.8477  -78.1591 C.3       3 UNK        -0.1996 
     59 N         -80.2207   25.9676  -76.8467 N.am      3 UNK        -0.4254 
     60 C         -78.9800   26.4076  -76.5894 C.2       2 UNK         0.5004 
     61 O         -77.9639   25.8882  -77.0462 O.2       2 UNK        -0.5226 
     62 CA        -78.8303   27.5940  -75.6238 C.3       2 UNK         0.0269 
     63 CB        -78.7930   28.9183  -76.4018 C.3       2 UNK        -0.1926 
     64 N         -79.8762   27.6502  -74.5997 N.am      2 UNK        -0.4687 
     65 C         -80.0915   26.6861  -73.6940 C.2       1 UNK         0.5165 
     66 O         -79.4314   25.6454  -73.6389 O.2       1 UNK        -0.5079 
     67 H67       -84.9347   25.0038  -74.6734 H         1 UNK         0.0900 
     68 H68       -83.6327   23.8854  -75.0880 H         1 UNK         0.0900 
     69 H69       -84.1195   24.0901  -73.4034 H         1 UNK         0.0900 
     70 H70       -82.5395   25.2276  -72.3054 H         1 UNK         0.2959 
     71 H71       -81.7469   27.8464  -72.9352 H         1 UNK         0.1079 
     72 H72       -79.9815   26.1780  -71.1057 H         1 UNK         0.0837 
     73 H73       -81.6408   26.3063  -70.6697 H         1 UNK         0.0837 
     74 H74       -79.4680   30.4086  -71.0749 H         1 UNK         0.0685 
     75 H75       -80.1337   29.5973  -72.4612 H         1 UNK         0.0685 
     76 H76       -78.1197   27.3331  -70.3647 H         1 UNK         0.1434 
     77 H77       -74.6629   27.6010  -72.8624 H         1 UNK         0.1329 
     78 H78       -77.9107   30.3331  -73.4310 H         1 UNK         0.1335 
     79 H79       -75.9741   29.4853  -75.3417 H         1 UNK         0.0680 
     80 H80       -74.4465   29.2605  -74.5242 H         1 UNK         0.0680 
     81 H81       -74.1632   30.6839  -72.2238 H         1 UNK         0.1032 
     82 H82       -74.6825   32.3406  -72.0861 H         1 UNK         0.1032 
     83 H83       -72.8809   32.9870  -73.7792 H         1 UNK         0.0461 
     84 H84       -71.6569   34.1316  -70.6449 H         1 UNK         0.3453 
     85 H85       -72.7240   34.4654  -71.9835 H         1 UNK         0.3453 
     86 H86       -72.1803   30.1209  -73.5944 H         1 UNK         0.2984 
     87 H87       -69.9008   30.4206  -76.2495 H         1 UNK         0.0554 
     88 H88       -68.3261   30.8169  -74.3721 H         1 UNK         0.0847 
     89 H89       -68.3021   29.1295  -74.8557 H         1 UNK         0.0847 
     90 H90       -69.1525   29.6190  -73.3897 H         1 UNK         0.0847 
     91 H91       -71.0488   28.5583  -76.3798 H         1 UNK         0.3141 
     92 H92       -71.1699   26.2753  -75.6332 H         1 UNK         0.0743 
     93 H93       -71.2922   25.5455  -73.2799 H         1 UNK         0.0784 
     94 H94       -72.4940   24.7049  -74.2418 H         1 UNK         0.0784 
     95 H95       -72.9741   26.0276  -73.1743 H         1 UNK         0.0784 
     96 H96       -74.0195   26.3782  -75.4430 H         1 UNK         0.3213 
     97 H97       -75.2525   27.9170  -77.2447 H         1 UNK         0.0855 
     98 H98       -73.8969   27.0179  -79.8401 H         1 UNK         0.0814 
     99 H99       -74.1643   28.6794  -79.3333 H         1 UNK         0.0814 
    100 H100      -75.5374   27.6510  -79.7065 H         1 UNK         0.0814 
    101 H101      -76.2197   25.9103  -77.3272 H         1 UNK         0.3105 
    102 H102      -76.5988   23.7107  -78.5053 H         1 UNK         0.0547 
    103 H103      -75.8583   21.3518  -78.1345 H         1 UNK         0.0837 
    104 H104      -74.2432   21.9187  -77.7106 H         1 UNK         0.0837 
    105 H105      -74.8675   22.1710  -79.3308 H         1 UNK         0.0837 
    106 H106      -77.2560   23.7201  -76.4025 H         1 UNK         0.3020 
    107 H107      -76.0847   22.4626  -73.4404 H         1 UNK         0.1245 
    108 H108      -76.3270   25.4965  -73.7351 H         1 UNK         0.0781 
    109 H109      -74.8749   24.6799  -73.1912 H         1 UNK         0.0781 
    110 H110      -74.6954   26.0432  -71.0032 H         1 UNK         0.0836 
    111 H111      -75.9478   26.1638  -69.7924 H         1 UNK         0.0836 
    112 H112      -78.3451   24.1553  -74.0699 H         1 UNK         0.3022 
    113 H113      -80.3986   21.4259  -75.2066 H         1 UNK         0.0747 
    114 H114      -81.8615   22.5325  -73.5344 H         1 UNK         0.0793 
    115 H115      -80.6015   21.6050  -72.7405 H         1 UNK         0.0793 
    116 H116      -80.4727   23.3538  -72.8217 H         1 UNK         0.0793 
    117 H117      -80.4489   24.3724  -75.1037 H         1 UNK         0.3047 
    118 H118      -79.8548   24.7961  -78.5316 H         1 UNK         0.0822 
    119 H119      -82.1461   25.7578  -78.7306 H         1 UNK         0.0807 
    120 H120      -82.6789   24.8187  -77.3374 H         1 UNK         0.0807 
    121 H121      -82.1868   24.0043  -78.8139 H         1 UNK         0.0807 
    122 H122      -81.0098   26.4250  -76.4012 H         1 UNK         0.2946 
    123 H123      -77.8753   27.4670  -75.1090 H         1 UNK         0.1144 
    124 H124      -78.6008   29.7644  -75.7425 H         1 UNK         0.0793 
    125 H125      -79.7319   29.1062  -76.9239 H         1 UNK         0.0793 
    126 H126      -77.9999   28.9081  -77.1511 H         1 UNK         0.0793 
    127 H127      -80.4962   28.4465  -74.6291 H         1 UNK         0.2896 
@<TRIPOS>BOND
     1    1    2 1    
     2    1   67 1    
     3    1   68 1    
     4    1   69 1    
     5    2    3 2    
     6    2    4 am   BACKBONE|DICT|INTERRES
     7    4    5 1    
     8    4   70 1    
     9    5    6 1    
    10    5   65 1    
    11    5   71 1    
    12    6    7 1    
    13    6   72 1    
    14    6   73 1    
    15    7    8 1    
    16    8    9 1    
    17    8   74 1    
    18    8   75 1    
    19    9   10 ar   
    20    9   14 ar   
    21   10   11 ar   
    22   10   76 1    
    23   11   12 ar   
    24   11   48 1    
    25   12   13 ar   
    26   12   77 1    
    27   13   14 ar   
    28   13   15 1    
    29   14   78 1    
    30   15   16 1    
    31   15   79 1    
    32   15   80 1    
    33   16   17 1    
    34   17   18 1    
    35   17   81 1    
    36   17   82 1    
    37   18   19 1    
    38   18   22 1    
    39   18   83 1    
    40   19   20 am   BACKBONE|DICT|INTERRES
    41   19   21 2    
    42   20   84 1    
    43   20   85 1    
    44   22   23 am   BACKBONE|DICT|INTERRES
    45   22   86 1    
    46   23   24 2    
    47   23   25 1    
    48   25   26 1    
    49   25   27 1    
    50   25   87 1    
    51   26   88 1    
    52   26   89 1    
    53   26   90 1    
    54   27   28 am   BACKBONE|DICT|INTERRES
    55   27   91 1    
    56   28   29 2    
    57   28   30 1    
    58   30   31 1    
    59   30   32 1    
    60   30   92 1    
    61   31   93 1    
    62   31   94 1    
    63   31   95 1    
    64   32   33 am   BACKBONE|DICT|INTERRES
    65   32   96 1    
    66   33   34 2    
    67   33   35 1    
    68   35   36 1    
    69   35   37 1    
    70   35   97 1    
    71   36   98 1    
    72   36   99 1    
    73   36  100 1    
    74   37   38 am   BACKBONE|DICT|INTERRES
    75   37  101 1    
    76   38   39 2    
    77   38   40 1    
    78   40   41 1    
    79   40   42 1    
    80   40  102 1    
    81   41  103 1    
    82   41  104 1    
    83   41  105 1    
    84   42   43 am   BACKBONE|DICT|INTERRES
    85   42  106 1    
    86   43   44 2    
    87   43   45 1    
    88   45   46 1    
    89   45   49 1    
    90   45  107 1    
    91   46   47 1    
    92   46  108 1    
    93   46  109 1    
    94   47   48 1    
    95   48  110 1    
    96   48  111 1    
    97   49   50 am   BACKBONE|DICT|INTERRES
    98   49  112 1    
    99   50   51 2    
   100   50   52 1    
   101   52   53 1    
   102   52   54 1    
   103   52  113 1    
   104   53  114 1    
   105   53  115 1    
   106   53  116 1    
   107   54   55 am   BACKBONE|DICT|INTERRES
   108   54  117 1    
   109   55   56 2    
   110   55   57 1    
   111   57   58 1    
   112   57   59 1    
   113   57  118 1    
   114   58  119 1    
   115   58  120 1    
   116   58  121 1    
   117   59   60 am   BACKBONE|DICT|INTERRES
   118   59  122 1    
   119   60   61 2    
   120   60   62 1    
   121   62   63 1    
   122   62   64 1    
   123   62  123 1    
   124   63  124 1    
   125   63  125 1    
   126   63  126 1    
   127   64   65 am   BACKBONE|DICT|INTERRES
   128   64  127 1    
   129   65   66 2    
@<TRIPOS>SUBSTRUCTURE
     1 UNK         1 GROUP             0       ****    0 ROOT    
