@<TRIPOS>MOLECULE
3R135
127   129    1
SMALL
USER_CHARGES


@<TRIPOS>ATOM
      1 CA        -83.5403   27.1089  -71.2586 C.3       0 UNK        -0.1998 
      2 C         -83.6992   27.2419  -72.7652 C.2       0 UNK         0.4909 
      3 O         -84.8183   27.1802  -73.2752 O.2       0 UNK        -0.5240 
      4 N         -82.5853   27.4033  -73.4897 N.am      1 UNK        -0.4739 
      5 CA        -82.5082   27.5557  -74.9494 C.3       1 UNK         0.0864 
      6 C6        -81.2421   28.3550  -75.3673 C.3       11 UNK        -0.0881 
      7 S7        -79.6738   27.6926  -74.6966 S.3       11 UNK        -0.2682 
      8 C8        -79.3439   28.8806  -73.3524 C.3       11 UNK         0.0289 
      9 C9        -78.1040   28.4942  -72.5602 C.ar      11 UNK        -0.0687 
     10 C10       -78.0549   27.2625  -71.9061 C.ar      11 UNK        -0.0823 
     11 C11       -76.9099   26.8685  -71.2092 C.ar      11 UNK        -0.0830 
     12 C12       -75.8210   27.7418  -71.1263 C.ar      11 UNK        -0.1021 
     13 C13       -75.8660   28.9912  -71.7540 C.ar      11 UNK        -0.0753 
     14 C14       -77.0088   29.3589  -72.4738 C.ar      11 UNK        -0.0933 
     15 C15       -74.6970   29.9594  -71.6354 C.3       11 UNK         0.0166 
     16 S16       -73.1757   29.3246  -72.4134 S.3       11 UNK        -0.2615 
     17 C17       -72.2949   30.8898  -72.7346 C.3       11 UNK        -0.0865 
     18 CA        -72.3049   31.2452  -74.2527 C.3       10 UNK         0.0862 
     19 C         -72.1636   32.7750  -74.5347 C.2       10 UNK         0.5551 
     20 N         -71.5998   33.1865  -75.6642 N.am      10 UNK        -0.7319 
     21 O         -72.6030   33.6049  -73.7422 O.2       10 UNK        -0.5018 
     22 N         -71.3993   30.3855  -75.0416 N.am      10 UNK        -0.4509 
     23 C         -70.0589   30.3920  -74.9687 C.2       10 UNK         0.4899 
     24 O         -69.4196   31.1050  -74.1925 O.2       10 UNK        -0.4839 
     25 CA        -69.3066   29.4653  -75.9451 C.3       9 UNK         0.0222 
     26 CB        -67.7803   29.4554  -75.7116 C.3       9 UNK        -0.1966 
     27 N         -69.8275   28.0957  -75.9694 N.am      9 UNK        -0.4218 
     28 C         -69.9389   27.2322  -74.9494 C.2       9 UNK         0.5020 
     29 O         -69.5968   27.4838  -73.7925 O.2       9 UNK        -0.5274 
     30 CA        -70.5249   25.8465  -75.2968 C.3       8 UNK         0.0270 
     31 CB        -70.8002   24.9868  -74.0485 C.3       8 UNK        -0.1976 
     32 N         -71.7532   25.9541  -76.0923 N.am      8 UNK        -0.4313 
     33 C         -71.7948   26.1814  -77.4150 C.2       8 UNK         0.5041 
     34 O         -70.7813   26.2939  -78.1058 O.2       8 UNK        -0.5577 
     35 CA        -73.1691   26.3716  -78.0842 C.3       7 UNK         0.0284 
     36 CB        -73.6124   25.0714  -78.7727 C.3       7 UNK        -0.1958 
     37 N         -74.2201   26.8138  -77.1674 N.am      7 UNK        -0.4454 
     38 C         -74.2169   27.9691  -76.4831 C.2       7 UNK         0.5089 
     39 O         -73.3574   28.8423  -76.6162 O.2       7 UNK        -0.5125 
     40 CA        -75.3414   28.1646  -75.4471 C.3       6 UNK         0.0408 
     41 CB        -76.4805   28.9817  -76.0758 C.3       6 UNK        -0.1791 
     42 N         -75.8748   26.9065  -74.9030 N.am      6 UNK        -0.4762 
     43 C         -75.1456   25.9395  -74.3190 C.2       6 UNK         0.5007 
     44 O         -73.9528   26.0691  -74.0461 O.2       6 UNK        -0.5032 
     45 CA        -75.7882   24.5454  -74.1414 C.3       5 UNK         0.0783 
     46 C46       -75.7389   24.0039  -72.6829 C.3       11 UNK        -0.0857 
     47 S47       -77.2736   24.1626  -71.7074 S.3       11 UNK        -0.2512 
     48 C48       -76.8636   25.5026  -70.5423 C.3       11 UNK         0.0225 
     49 N         -77.0910   24.3841  -74.8025 N.am      5 UNK        -0.4615 
     50 C         -77.2847   24.3824  -76.1292 C.2       4 UNK         0.5053 
     51 O         -76.3710   24.5775  -76.9330 O.2       4 UNK        -0.5105 
     52 CA        -78.7178   24.1822  -76.6629 C.3       4 UNK         0.0263 
     53 CB        -78.7511   23.2072  -77.8580 C.3       4 UNK        -0.1981 
     54 N         -79.7271   23.8087  -75.6621 N.am      4 UNK        -0.4224 
     55 C         -79.7871   22.6896  -74.9201 C.2       3 UNK         0.4895 
     56 O         -78.9290   21.8074  -74.9353 O.2       3 UNK        -0.5091 
     57 CA        -81.0053   22.5226  -73.9902 C.3       3 UNK         0.0250 
     58 CB        -80.6389   22.9133  -72.5494 C.3       3 UNK        -0.1996 
     59 N         -82.1702   23.3042  -74.4097 N.am      3 UNK        -0.4254 
     60 C         -82.9224   23.0503  -75.4904 C.2       2 UNK         0.5004 
     61 O         -82.7834   22.0573  -76.2049 O.2       2 UNK        -0.5226 
     62 CA        -83.9961   24.0958  -75.8491 C.3       2 UNK         0.0269 
     63 CB        -85.3752   23.6484  -75.3384 C.3       2 UNK        -0.1926 
     64 N         -83.7087   25.4422  -75.3371 N.am      2 UNK        -0.4687 
     65 C         -82.6564   26.1993  -75.6795 C.2       1 UNK         0.5165 
     66 O         -81.8102   25.8323  -76.4959 O.2       1 UNK        -0.5079 
     67 H67       -84.0941   27.8993  -70.7528 H         1 UNK         0.0900 
     68 H68       -82.4970   27.1754  -70.9507 H         1 UNK         0.0900 
     69 H69       -83.9329   26.1493  -70.9232 H         1 UNK         0.0900 
     70 H70       -81.6899   27.4072  -73.0232 H         1 UNK         0.2959 
     71 H71       -83.3689   28.1477  -75.2695 H         1 UNK         0.1079 
     72 H72       -81.3523   29.3920  -75.0468 H         1 UNK         0.0837 
     73 H73       -81.1583   28.4048  -76.4547 H         1 UNK         0.0837 
     74 H74       -80.1984   28.9228  -72.6762 H         1 UNK         0.0685 
     75 H75       -79.2342   29.8787  -73.7793 H         1 UNK         0.0685 
     76 H76       -78.9021   26.5932  -71.9662 H         1 UNK         0.1434 
     77 H77       -74.9341   27.4526  -70.5793 H         1 UNK         0.1329 
     78 H78       -77.0459   30.3201  -72.9674 H         1 UNK         0.1335 
     79 H79       -74.9625   30.9144  -72.0917 H         1 UNK         0.0680 
     80 H80       -74.5011   30.1648  -70.5821 H         1 UNK         0.0680 
     81 H81       -72.7545   31.6741  -72.1316 H         1 UNK         0.1032 
     82 H82       -71.2757   30.8045  -72.3567 H         1 UNK         0.1032 
     83 H83       -73.3037   31.0191  -74.6287 H         1 UNK         0.0461 
     84 H84       -71.5223   34.1746  -75.8473 H         1 UNK         0.3453 
     85 H85       -71.2529   32.5186  -76.3335 H         1 UNK         0.3453 
     86 H86       -71.8636   29.7676  -75.7011 H         1 UNK         0.2984 
     87 H87       -69.4813   29.8723  -76.9420 H         1 UNK         0.0554 
     88 H88       -67.2703   28.8281  -76.4425 H         1 UNK         0.0847 
     89 H89       -67.5258   29.0865  -74.7173 H         1 UNK         0.0847 
     90 H90       -67.3635   30.4593  -75.8020 H         1 UNK         0.0847 
     91 H91       -70.1316   27.7530  -76.8763 H         1 UNK         0.3141 
     92 H92       -69.7711   25.3241  -75.8897 H         1 UNK         0.0743 
     93 H93       -69.8774   24.7874  -73.5022 H         1 UNK         0.0784 
     94 H94       -71.4829   25.4839  -73.3585 H         1 UNK         0.0784 
     95 H95       -71.2332   24.0225  -74.3147 H         1 UNK         0.0784 
     96 H96       -72.6203   25.9607  -75.5629 H         1 UNK         0.3213 
     97 H97       -73.0539   27.1435  -78.8480 H         1 UNK         0.0855 
     98 H98       -73.7573   24.2639  -78.0537 H         1 UNK         0.0814 
     99 H99       -72.8661   24.7366  -79.4946 H         1 UNK         0.0814 
    100 H100      -74.5487   25.2074  -79.3145 H         1 UNK         0.0814 
    101 H101      -74.9779   26.1587  -77.0023 H         1 UNK         0.3105 
    102 H102      -74.9267   28.7357  -74.6175 H         1 UNK         0.0547 
    103 H103      -76.9913   28.4259  -76.8630 H         1 UNK         0.0837 
    104 H104      -77.2217   29.2703  -75.3341 H         1 UNK         0.0837 
    105 H105      -76.1021   29.9039  -76.5192 H         1 UNK         0.0837 
    106 H106      -76.8531   26.7208  -75.0706 H         1 UNK         0.3020 
    107 H107      -75.1075   23.9000  -74.7028 H         1 UNK         0.1245 
    108 H108      -74.9011   24.4266  -72.1247 H         1 UNK         0.0781 
    109 H109      -75.5286   22.9340  -72.7235 H         1 UNK         0.0781 
    110 H110      -75.8884   25.3117  -70.0918 H         1 UNK         0.0836 
    111 H111      -77.5869   25.4899  -69.7260 H         1 UNK         0.0836 
    112 H112      -77.8781   24.2240  -74.1908 H         1 UNK         0.3022 
    113 H113      -79.0280   25.1607  -77.0330 H         1 UNK         0.0747 
    114 H114      -79.7600   23.1075  -78.2586 H         1 UNK         0.0793 
    115 H115      -78.1151   23.5592  -78.6713 H         1 UNK         0.0793 
    116 H116      -78.4002   22.2131  -77.5794 H         1 UNK         0.0793 
    117 H117      -80.4982   24.4641  -75.5941 H         1 UNK         0.3047 
    118 H118      -81.2823   21.4661  -74.0008 H         1 UNK         0.0822 
    119 H119      -79.7914   22.3273  -72.1907 H         1 UNK         0.0807 
    120 H120      -81.4673   22.7310  -71.8647 H         1 UNK         0.0807 
    121 H121      -80.3634   23.9660  -72.4718 H         1 UNK         0.0807 
    122 H122      -82.3796   24.1347  -73.8758 H         1 UNK         0.2946 
    123 H123      -84.0323   24.1551  -76.9393 H         1 UNK         0.1144 
    124 H124      -85.6316   22.6588  -75.7198 H         1 UNK         0.0793 
    125 H125      -86.1596   24.3321  -75.6635 H         1 UNK         0.0793 
    126 H126      -85.4047   23.5966  -74.2493 H         1 UNK         0.0793 
    127 H127      -84.3506   25.8261  -74.6492 H         1 UNK         0.2896 
@<TRIPOS>BOND
     1    1    2 1    
     2    1   67 1    
     3    1   68 1    
     4    1   69 1    
     5    2    3 2    
     6    2    4 am   BACKBONE|DICT|INTERRES
     7    4    5 1    
     8    4   70 1    
     9    5    6 1    
    10    5   65 1    
    11    5   71 1    
    12    6    7 1    
    13    6   72 1    
    14    6   73 1    
    15    7    8 1    
    16    8    9 1    
    17    8   74 1    
    18    8   75 1    
    19    9   10 ar   
    20    9   14 ar   
    21   10   11 ar   
    22   10   76 1    
    23   11   12 ar   
    24   11   48 1    
    25   12   13 ar   
    26   12   77 1    
    27   13   14 ar   
    28   13   15 1    
    29   14   78 1    
    30   15   16 1    
    31   15   79 1    
    32   15   80 1    
    33   16   17 1    
    34   17   18 1    
    35   17   81 1    
    36   17   82 1    
    37   18   19 1    
    38   18   22 1    
    39   18   83 1    
    40   19   20 am   BACKBONE|DICT|INTERRES
    41   19   21 2    
    42   20   84 1    
    43   20   85 1    
    44   22   23 am   BACKBONE|DICT|INTERRES
    45   22   86 1    
    46   23   24 2    
    47   23   25 1    
    48   25   26 1    
    49   25   27 1    
    50   25   87 1    
    51   26   88 1    
    52   26   89 1    
    53   26   90 1    
    54   27   28 am   BACKBONE|DICT|INTERRES
    55   27   91 1    
    56   28   29 2    
    57   28   30 1    
    58   30   31 1    
    59   30   32 1    
    60   30   92 1    
    61   31   93 1    
    62   31   94 1    
    63   31   95 1    
    64   32   33 am   BACKBONE|DICT|INTERRES
    65   32   96 1    
    66   33   34 2    
    67   33   35 1    
    68   35   36 1    
    69   35   37 1    
    70   35   97 1    
    71   36   98 1    
    72   36   99 1    
    73   36  100 1    
    74   37   38 am   BACKBONE|DICT|INTERRES
    75   37  101 1    
    76   38   39 2    
    77   38   40 1    
    78   40   41 1    
    79   40   42 1    
    80   40  102 1    
    81   41  103 1    
    82   41  104 1    
    83   41  105 1    
    84   42   43 am   BACKBONE|DICT|INTERRES
    85   42  106 1    
    86   43   44 2    
    87   43   45 1    
    88   45   46 1    
    89   45   49 1    
    90   45  107 1    
    91   46   47 1    
    92   46  108 1    
    93   46  109 1    
    94   47   48 1    
    95   48  110 1    
    96   48  111 1    
    97   49   50 am   BACKBONE|DICT|INTERRES
    98   49  112 1    
    99   50   51 2    
   100   50   52 1    
   101   52   53 1    
   102   52   54 1    
   103   52  113 1    
   104   53  114 1    
   105   53  115 1    
   106   53  116 1    
   107   54   55 am   BACKBONE|DICT|INTERRES
   108   54  117 1    
   109   55   56 2    
   110   55   57 1    
   111   57   58 1    
   112   57   59 1    
   113   57  118 1    
   114   58  119 1    
   115   58  120 1    
   116   58  121 1    
   117   59   60 am   BACKBONE|DICT|INTERRES
   118   59  122 1    
   119   60   61 2    
   120   60   62 1    
   121   62   63 1    
   122   62   64 1    
   123   62  123 1    
   124   63  124 1    
   125   63  125 1    
   126   63  126 1    
   127   64   65 am   BACKBONE|DICT|INTERRES
   128   64  127 1    
   129   65   66 2    
@<TRIPOS>SUBSTRUCTURE
     1 UNK         1 GROUP             0       ****    0 ROOT    
