@<TRIPOS>MOLECULE
3R135
127   129    1
SMALL
USER_CHARGES


@<TRIPOS>ATOM
      1 CA        -82.3013   26.9971  -69.9366 C.3       0 UNK        -0.1998 
      2 C         -81.9612   26.7818  -71.4029 C.2       0 UNK         0.4909 
      3 O         -80.9281   26.1856  -71.7033 O.2       0 UNK        -0.5240 
      4 N         -82.8287   27.2524  -72.3103 N.am      1 UNK        -0.4739 
      5 CA        -82.7341   27.2371  -73.7833 C.3       1 UNK         0.0864 
      6 C6        -81.5062   27.9923  -74.3614 C.3       11 UNK        -0.0881 
      7 S7        -81.3473   29.7082  -73.7616 S.3       11 UNK        -0.2682 
      8 C8        -79.6684   30.1260  -74.3518 C.3       11 UNK         0.0289 
      9 C9        -78.5329   29.8070  -73.3758 C.ar      11 UNK        -0.0687 
     10 C10       -78.6058   28.7525  -72.4575 C.ar      11 UNK        -0.0823 
     11 C11       -77.5486   28.4810  -71.5862 C.ar      11 UNK        -0.0830 
     12 C12       -76.3994   29.2745  -71.6332 C.ar      11 UNK        -0.1021 
     13 C13       -76.3088   30.3343  -72.5400 C.ar      11 UNK        -0.0753 
     14 C14       -77.3741   30.5902  -73.4092 C.ar      11 UNK        -0.0933 
     15 C15       -75.0764   31.2247  -72.5599 C.3       11 UNK         0.0166 
     16 S16       -73.9811   30.8281  -73.9555 S.3       11 UNK        -0.2615 
     17 C17       -72.6271   32.0233  -73.6651 C.3       11 UNK        -0.0865 
     18 CA        -71.2920   31.3669  -73.2255 C.3       10 UNK         0.0862 
     19 C         -71.3710   30.7644  -71.7902 C.2       10 UNK         0.5551 
     20 N         -71.1442   29.4710  -71.5953 N.am      10 UNK        -0.7319 
     21 O         -71.6326   31.4918  -70.8352 O.2       10 UNK        -0.5018 
     22 N         -70.7771   30.4653  -74.2674 N.am      10 UNK        -0.4509 
     23 C         -69.5096   30.0583  -74.3942 C.2       10 UNK         0.4899 
     24 O         -68.5999   30.4200  -73.6463 O.2       10 UNK        -0.4839 
     25 CA        -69.2214   29.0706  -75.5445 C.3       9 UNK         0.0222 
     26 CB        -67.7407   28.6498  -75.6076 C.3       9 UNK        -0.1966 
     27 N         -70.0549   27.8662  -75.4614 N.am      9 UNK        -0.4218 
     28 C         -71.3426   27.7875  -75.8208 C.2       9 UNK         0.5020 
     29 O         -71.9836   28.7427  -76.2668 O.2       9 UNK        -0.5274 
     30 CA        -72.0287   26.4316  -75.5840 C.3       8 UNK         0.0270 
     31 CB        -72.4139   26.2798  -74.1026 C.3       8 UNK        -0.1976 
     32 N         -73.2204   26.2657  -76.4228 N.am      8 UNK        -0.4313 
     33 C         -73.1748   26.0472  -77.7461 C.2       8 UNK         0.5041 
     34 O         -72.1172   25.9323  -78.3699 O.2       8 UNK        -0.5577 
     35 CA        -74.4975   25.8932  -78.5237 C.3       7 UNK         0.0284 
     36 CB        -74.5952   24.4853  -79.1368 C.3       7 UNK        -0.1958 
     37 N         -75.6987   26.1421  -77.7247 N.am      7 UNK        -0.4454 
     38 C         -76.1993   27.3519  -77.4411 C.2       7 UNK         0.5089 
     39 O         -75.7252   28.4058  -77.8648 O.2       7 UNK        -0.5125 
     40 CA        -77.4300   27.3943  -76.5131 C.3       6 UNK         0.0408 
     41 CB        -78.7253   27.3105  -77.3342 C.3       6 UNK        -0.1791 
     42 N         -77.4353   26.3404  -75.4929 N.am      6 UNK        -0.4762 
     43 C         -76.4880   26.1845  -74.5552 C.2       6 UNK         0.5007 
     44 O         -75.5062   26.9169  -74.4567 O.2       6 UNK        -0.5032 
     45 CA        -76.6130   24.9609  -73.6318 C.3       5 UNK         0.0783 
     46 C46       -77.5685   25.2106  -72.4373 C.3       11 UNK        -0.0857 
     47 S47       -76.6717   25.9007  -71.0047 S.3       11 UNK        -0.2512 
     48 C48       -77.6691   27.3580  -70.5658 C.3       11 UNK         0.0225 
     49 N         -76.9875   23.7771  -74.4081 N.am      5 UNK        -0.4615 
     50 C         -76.1102   23.0148  -75.0764 C.2       4 UNK         0.5053 
     51 O         -74.8937   23.2003  -75.0619 O.2       4 UNK        -0.5105 
     52 CA        -76.6743   21.8484  -75.9076 C.3       4 UNK         0.0263 
     53 CB        -76.7068   20.5601  -75.0699 C.3       4 UNK        -0.1981 
     54 N         -78.0096   22.1062  -76.4506 N.am      4 UNK        -0.4224 
     55 C         -78.2881   23.0411  -77.3694 C.2       3 UNK         0.4895 
     56 O         -77.4450   23.7802  -77.8739 O.2       3 UNK        -0.5091 
     57 CA        -79.7675   23.2178  -77.7494 C.3       3 UNK         0.0250 
     58 CB        -80.1605   22.2308  -78.8600 C.3       3 UNK        -0.1996 
     59 N         -80.6963   23.0861  -76.6197 N.am      3 UNK        -0.4254 
     60 C         -80.6514   23.8257  -75.5032 C.2       2 UNK         0.5004 
     61 O         -79.7615   24.6456  -75.2558 O.2       2 UNK        -0.5226 
     62 CA        -81.7616   23.5872  -74.4689 C.3       2 UNK         0.0269 
     63 CB        -81.2828   22.6038  -73.3892 C.3       2 UNK        -0.1926 
     64 N         -82.1088   24.8557  -73.8352 N.am      2 UNK        -0.4687 
     65 C         -82.8090   25.8329  -74.4205 C.2       1 UNK         0.5165 
     66 O         -83.4665   25.6709  -75.4500 O.2       1 UNK        -0.5079 
     67 H67       -83.2416   27.5331  -69.8091 H         1 UNK         0.0900 
     68 H68       -82.3843   26.0377  -69.4268 H         1 UNK         0.0900 
     69 H69       -81.5135   27.5737  -69.4524 H         1 UNK         0.0900 
     70 H70       -83.6646   27.7036  -71.9652 H         1 UNK         0.2959 
     71 H71       -83.6253   27.7654  -74.1270 H         1 UNK         0.1079 
     72 H72       -81.5846   28.0422  -75.4492 H         1 UNK         0.0837 
     73 H73       -80.5857   27.4421  -74.1600 H         1 UNK         0.0837 
     74 H74       -79.4771   29.6221  -75.2997 H         1 UNK         0.0685 
     75 H75       -79.6625   31.1950  -74.5704 H         1 UNK         0.0685 
     76 H76       -79.4906   28.1410  -72.4017 H         1 UNK         0.1434 
     77 H77       -75.5802   29.0707  -70.9571 H         1 UNK         0.1329 
     78 H78       -77.2977   31.4083  -74.1126 H         1 UNK         0.1335 
     79 H79       -74.5203   31.1250  -71.6262 H         1 UNK         0.0680 
     80 H80       -75.3841   32.2694  -72.6268 H         1 UNK         0.0680 
     81 H81       -72.4689   32.5753  -74.5928 H         1 UNK         0.1032 
     82 H82       -72.9386   32.7753  -72.9376 H         1 UNK         0.1032 
     83 H83       -70.5668   32.1789  -73.1444 H         1 UNK         0.0461 
     84 H84       -70.9230   28.8734  -72.3739 H         1 UNK         0.3453 
     85 H85       -71.1925   29.0946  -70.6620 H         1 UNK         0.3453 
     86 H86       -71.4653   30.0839  -74.9109 H         1 UNK         0.2984 
     87 H87       -69.4538   29.5906  -76.4763 H         1 UNK         0.0554 
     88 H88       -67.0914   29.5194  -75.7182 H         1 UNK         0.0847 
     89 H89       -67.5488   27.9971  -76.4595 H         1 UNK         0.0847 
     90 H90       -67.4295   28.1239  -74.7040 H         1 UNK         0.0847 
     91 H91       -69.6140   27.0458  -75.0698 H         1 UNK         0.3141 
     92 H92       -71.3251   25.6362  -75.8395 H         1 UNK         0.0743 
     93 H93       -73.0118   27.1228  -73.7531 H         1 UNK         0.0784 
     94 H94       -72.9852   25.3672  -73.9299 H         1 UNK         0.0784 
     95 H95       -71.5275   26.2306  -73.4694 H         1 UNK         0.0784 
     96 H96       -74.1162   26.4202  -75.9730 H         1 UNK         0.3213 
     97 H97       -74.4700   26.6152  -79.3427 H         1 UNK         0.0855 
     98 H98       -74.6303   23.7140  -78.3660 H         1 UNK         0.0814 
     99 H99       -73.7372   24.2710  -79.7753 H         1 UNK         0.0814 
    100 H100      -75.4878   24.3828  -79.7542 H         1 UNK         0.0814 
    101 H101      -76.2099   25.3235  -77.4087 H         1 UNK         0.3105 
    102 H102      -77.4150   28.3519  -75.9887 H         1 UNK         0.0547 
    103 H103      -78.7908   28.1362  -78.0437 H         1 UNK         0.0837 
    104 H104      -78.7771   26.3838  -77.9060 H         1 UNK         0.0837 
    105 H105      -79.6065   27.3578  -76.6959 H         1 UNK         0.0837 
    106 H106      -78.2252   25.6979  -75.4979 H         1 UNK         0.3020 
    107 H107      -75.6142   24.7764  -73.2274 H         1 UNK         0.1245 
    108 H108      -78.0085   24.2704  -72.1011 H         1 UNK         0.0781 
    109 H109      -78.4141   25.8420  -72.7164 H         1 UNK         0.0781 
    110 H110      -77.3395   27.7252  -69.5928 H         1 UNK         0.0836 
    111 H111      -78.7094   27.0565  -70.4350 H         1 UNK         0.0836 
    112 H112      -77.9786   23.6165  -74.5327 H         1 UNK         0.3022 
    113 H113      -75.9972   21.6915  -76.7502 H         1 UNK         0.0747 
    114 H114      -77.0207   19.7047  -75.6683 H         1 UNK         0.0793 
    115 H115      -75.7174   20.3289  -74.6723 H         1 UNK         0.0793 
    116 H116      -77.3868   20.6461  -74.2213 H         1 UNK         0.0793 
    117 H117      -78.7691   21.5489  -76.0877 H         1 UNK         0.3047 
    118 H118      -79.8808   24.2299  -78.1421 H         1 UNK         0.0822 
    119 H119      -81.1723   22.4193  -79.2195 H         1 UNK         0.0807 
    120 H120      -80.1116   21.1957  -78.5193 H         1 UNK         0.0807 
    121 H121      -79.4927   22.3233  -79.7179 H         1 UNK         0.0807 
    122 H122      -81.4509   22.4244  -76.7348 H         1 UNK         0.2946 
    123 H123      -82.6455   23.1800  -74.9651 H         1 UNK         0.1144 
    124 H124      -82.0591   22.4264  -72.6446 H         1 UNK         0.0793 
    125 H125      -80.3998   22.9763  -72.8674 H         1 UNK         0.0793 
    126 H126      -81.0241   21.6375  -73.8240 H         1 UNK         0.0793 
    127 H127      -81.5584   25.1258  -73.0218 H         1 UNK         0.2896 
@<TRIPOS>BOND
     1    1    2 1    
     2    1   67 1    
     3    1   68 1    
     4    1   69 1    
     5    2    3 2    
     6    2    4 am   BACKBONE|DICT|INTERRES
     7    4    5 1    
     8    4   70 1    
     9    5    6 1    
    10    5   65 1    
    11    5   71 1    
    12    6    7 1    
    13    6   72 1    
    14    6   73 1    
    15    7    8 1    
    16    8    9 1    
    17    8   74 1    
    18    8   75 1    
    19    9   10 ar   
    20    9   14 ar   
    21   10   11 ar   
    22   10   76 1    
    23   11   12 ar   
    24   11   48 1    
    25   12   13 ar   
    26   12   77 1    
    27   13   14 ar   
    28   13   15 1    
    29   14   78 1    
    30   15   16 1    
    31   15   79 1    
    32   15   80 1    
    33   16   17 1    
    34   17   18 1    
    35   17   81 1    
    36   17   82 1    
    37   18   19 1    
    38   18   22 1    
    39   18   83 1    
    40   19   20 am   BACKBONE|DICT|INTERRES
    41   19   21 2    
    42   20   84 1    
    43   20   85 1    
    44   22   23 am   BACKBONE|DICT|INTERRES
    45   22   86 1    
    46   23   24 2    
    47   23   25 1    
    48   25   26 1    
    49   25   27 1    
    50   25   87 1    
    51   26   88 1    
    52   26   89 1    
    53   26   90 1    
    54   27   28 am   BACKBONE|DICT|INTERRES
    55   27   91 1    
    56   28   29 2    
    57   28   30 1    
    58   30   31 1    
    59   30   32 1    
    60   30   92 1    
    61   31   93 1    
    62   31   94 1    
    63   31   95 1    
    64   32   33 am   BACKBONE|DICT|INTERRES
    65   32   96 1    
    66   33   34 2    
    67   33   35 1    
    68   35   36 1    
    69   35   37 1    
    70   35   97 1    
    71   36   98 1    
    72   36   99 1    
    73   36  100 1    
    74   37   38 am   BACKBONE|DICT|INTERRES
    75   37  101 1    
    76   38   39 2    
    77   38   40 1    
    78   40   41 1    
    79   40   42 1    
    80   40  102 1    
    81   41  103 1    
    82   41  104 1    
    83   41  105 1    
    84   42   43 am   BACKBONE|DICT|INTERRES
    85   42  106 1    
    86   43   44 2    
    87   43   45 1    
    88   45   46 1    
    89   45   49 1    
    90   45  107 1    
    91   46   47 1    
    92   46  108 1    
    93   46  109 1    
    94   47   48 1    
    95   48  110 1    
    96   48  111 1    
    97   49   50 am   BACKBONE|DICT|INTERRES
    98   49  112 1    
    99   50   51 2    
   100   50   52 1    
   101   52   53 1    
   102   52   54 1    
   103   52  113 1    
   104   53  114 1    
   105   53  115 1    
   106   53  116 1    
   107   54   55 am   BACKBONE|DICT|INTERRES
   108   54  117 1    
   109   55   56 2    
   110   55   57 1    
   111   57   58 1    
   112   57   59 1    
   113   57  118 1    
   114   58  119 1    
   115   58  120 1    
   116   58  121 1    
   117   59   60 am   BACKBONE|DICT|INTERRES
   118   59  122 1    
   119   60   61 2    
   120   60   62 1    
   121   62   63 1    
   122   62   64 1    
   123   62  123 1    
   124   63  124 1    
   125   63  125 1    
   126   63  126 1    
   127   64   65 am   BACKBONE|DICT|INTERRES
   128   64  127 1    
   129   65   66 2    
@<TRIPOS>SUBSTRUCTURE
     1 UNK         1 GROUP             0       ****    0 ROOT    
