@<TRIPOS>MOLECULE
3R135
127   129    1
SMALL
USER_CHARGES


@<TRIPOS>ATOM
      1 CA        -85.3041   28.7918  -72.2887 C.3       0 UNK        -0.1998 
      2 C         -84.6177   28.4042  -73.5901 C.2       0 UNK         0.4909 
      3 O         -85.2685   28.3564  -74.6350 O.2       0 UNK        -0.5240 
      4 N         -83.3074   28.1362  -73.5359 N.am      1 UNK        -0.4739 
      5 CA        -82.5003   27.6903  -74.6770 C.3       1 UNK         0.0864 
      6 C6        -80.9882   27.9043  -74.4258 C.3       11 UNK        -0.0881 
      7 S7        -80.5602   29.6777  -74.4595 S.3       11 UNK        -0.2682 
      8 C8        -80.1205   30.0134  -72.7248 C.3       11 UNK         0.0289 
      9 C9        -78.7213   29.5219  -72.3781 C.ar      11 UNK        -0.0687 
     10 C10       -78.5405   28.4781  -71.4644 C.ar      11 UNK        -0.0823 
     11 C11       -77.2540   28.0523  -71.1174 C.ar      11 UNK        -0.0830 
     12 C12       -76.1490   28.6795  -71.6991 C.ar      11 UNK        -0.1021 
     13 C13       -76.3111   29.7120  -72.6249 C.ar      11 UNK        -0.0753 
     14 C14       -77.6025   30.1357  -72.9521 C.ar      11 UNK        -0.0933 
     15 C15       -75.0995   30.3352  -73.3069 C.3       11 UNK         0.0166 
     16 S16       -74.0945   31.3523  -72.1789 S.3       11 UNK        -0.2615 
     17 C17       -72.8098   30.1736  -71.6220 C.3       11 UNK        -0.0865 
     18 CA        -71.4996   30.2870  -72.4458 C.3       10 UNK         0.0862 
     19 C         -70.3205   29.5238  -71.7701 C.2       10 UNK         0.5551 
     20 N         -69.5915   28.6538  -72.4608 N.am      10 UNK        -0.7319 
     21 O         -70.0508   29.7357  -70.5903 O.2       10 UNK        -0.5018 
     22 N         -71.7226   29.9053  -73.8484 N.am      10 UNK        -0.4509 
     23 C         -71.0825   30.4285  -74.8990 C.2       10 UNK         0.4899 
     24 O         -70.2655   31.3474  -74.8182 O.2       10 UNK        -0.4839 
     25 CA        -71.4160   29.8052  -76.2686 C.3       9 UNK         0.0222 
     26 CB        -70.3896   30.1749  -77.3604 C.3       9 UNK        -0.1966 
     27 N         -71.6121   28.3489  -76.2212 N.am      9 UNK        -0.4218 
     28 C         -70.7278   27.4218  -75.8131 C.2       9 UNK         0.5020 
     29 O         -69.6307   27.7016  -75.3274 O.2       9 UNK        -0.5274 
     30 CA        -71.1136   25.9318  -75.9391 C.3       8 UNK         0.0270 
     31 CB        -71.2016   25.2753  -74.5505 C.3       8 UNK        -0.1976 
     32 N         -72.3667   25.6896  -76.6576 N.am      8 UNK        -0.4313 
     33 C         -72.5646   25.8750  -77.9699 C.2       8 UNK         0.5041 
     34 O         -71.6723   26.1794  -78.7618 O.2       8 UNK        -0.5577 
     35 CA        -74.0150   25.7560  -78.4741 C.3       7 UNK         0.0284 
     36 CB        -74.2960   24.3361  -78.9910 C.3       7 UNK        -0.1958 
     37 N         -75.0133   26.1286  -77.4619 N.am      7 UNK        -0.4454 
     38 C         -75.1357   27.3530  -76.9266 C.2       7 UNK         0.5089 
     39 O         -74.4227   28.3078  -77.2348 O.2       7 UNK        -0.5125 
     40 CA        -76.1985   27.5335  -75.8337 C.3       6 UNK         0.0408 
     41 CB        -77.5770   27.8037  -76.4482 C.3       6 UNK        -0.1791 
     42 N         -76.2678   26.3872  -74.9254 N.am      6 UNK        -0.4762 
     43 C         -75.3495   26.1250  -73.9800 C.2       6 UNK         0.5007 
     44 O         -74.3700   26.8405  -73.7649 O.2       6 UNK        -0.5032 
     45 CA        -75.5159   24.8038  -73.1929 C.3       5 UNK         0.0783 
     46 C46       -76.5099   24.9447  -72.0112 C.3       11 UNK        -0.0857 
     47 S47       -75.7723   25.7292  -70.5431 S.3       11 UNK        -0.2512 
     48 C48       -77.0648   26.9386  -70.0906 C.3       11 UNK         0.0225 
     49 N         -75.9233   23.6946  -74.0570 N.am      5 UNK        -0.4615 
     50 C         -75.3015   23.2762  -75.1661 C.2       4 UNK         0.5053 
     51 O         -74.2104   23.7042  -75.5388 O.2       4 UNK        -0.5105 
     52 CA        -76.0473   22.2444  -76.0350 C.3       4 UNK         0.0263 
     53 CB        -75.3916   20.8608  -75.9039 C.3       4 UNK        -0.1981 
     54 N         -77.4839   22.1313  -75.7437 N.am      4 UNK        -0.4224 
     55 C         -78.3878   23.1131  -75.8776 C.2       3 UNK         0.4895 
     56 O         -78.1193   24.2546  -76.2651 O.2       3 UNK        -0.5091 
     57 CA        -79.8093   22.7780  -75.4189 C.3       3 UNK         0.0250 
     58 CB        -79.9223   22.8817  -73.8856 C.3       3 UNK        -0.1996 
     59 N         -80.7532   23.7022  -76.0394 N.am      3 UNK        -0.4254 
     60 C         -82.0370   23.4278  -76.2993 C.2       2 UNK         0.5004 
     61 O         -82.5640   22.3403  -76.0539 O.2       2 UNK        -0.5226 
     62 CA        -82.8669   24.5641  -76.9317 C.3       2 UNK         0.0269 
     63 CB        -84.3801   24.2560  -76.9623 C.3       2 UNK        -0.1926 
     64 N         -82.6249   25.8785  -76.3162 N.am      2 UNK        -0.4687 
     65 C         -82.7987   26.2179  -75.0281 C.2       1 UNK         0.5165 
     66 O         -83.1508   25.4336  -74.1429 O.2       1 UNK        -0.5079 
     67 H67       -85.7508   29.7815  -72.3803 H         1 UNK         0.0900 
     68 H68       -84.6081   28.8106  -71.4502 H         1 UNK         0.0900 
     69 H69       -86.0959   28.0802  -72.0562 H         1 UNK         0.0900 
     70 H70       -82.8320   28.1618  -72.6463 H         1 UNK         0.2959 
     71 H71       -82.7919   28.2908  -75.5425 H         1 UNK         0.1079 
     72 H72       -80.6748   27.4498  -73.4841 H         1 UNK         0.0837 
     73 H73       -80.3998   27.4163  -75.2038 H         1 UNK         0.0837 
     74 H74       -80.8703   29.5741  -72.0652 H         1 UNK         0.0685 
     75 H75       -80.1642   31.0906  -72.5582 H         1 UNK         0.0685 
     76 H76       -79.4024   28.0069  -71.0120 H         1 UNK         0.1434 
     77 H77       -75.1577   28.3420  -71.4420 H         1 UNK         0.1329 
     78 H78       -77.7430   30.9365  -73.6651 H         1 UNK         0.1335 
     79 H79       -74.4861   29.5502  -73.7477 H         1 UNK         0.0680 
     80 H80       -75.4189   30.9649  -74.1386 H         1 UNK         0.0680 
     81 H81       -72.6211   30.3902  -70.5688 H         1 UNK         0.1032 
     82 H82       -73.1795   29.1498  -71.6531 H         1 UNK         0.1032 
     83 H83       -71.2021   31.3371  -72.4234 H         1 UNK         0.0461 
     84 H84       -68.8318   28.1801  -71.9993 H         1 UNK         0.3453 
     85 H85       -69.7609   28.4847  -73.4458 H         1 UNK         0.3453 
     86 H86       -72.3494   29.1295  -74.0044 H         1 UNK         0.2984 
     87 H87       -72.3769   30.2283  -76.5651 H         1 UNK         0.0554 
     88 H88       -70.6623   29.7425  -78.3231 H         1 UNK         0.0847 
     89 H89       -69.3877   29.8259  -77.1077 H         1 UNK         0.0847 
     90 H90       -70.3331   31.2556  -77.4966 H         1 UNK         0.0847 
     91 H91       -72.5077   28.0323  -76.5794 H         1 UNK         0.3141 
     92 H92       -70.3119   25.4422  -76.4956 H         1 UNK         0.0743 
     93 H93       -70.2551   25.3617  -74.0151 H         1 UNK         0.0784 
     94 H94       -71.9677   25.7416  -73.9312 H         1 UNK         0.0784 
     95 H95       -71.4335   24.2127  -74.6268 H         1 UNK         0.0784 
     96 H96       -73.1449   25.3368  -76.1085 H         1 UNK         0.3213 
     97 H97       -74.1273   26.4495  -79.3104 H         1 UNK         0.0855 
     98 H98       -74.1170   23.5824  -78.2245 H         1 UNK         0.0814 
     99 H99       -73.6433   24.0973  -79.8317 H         1 UNK         0.0814 
    100 H100      -75.3235   24.2308  -79.3397 H         1 UNK         0.0814 
    101 H101      -75.6314   25.4006  -77.1334 H         1 UNK         0.3105 
    102 H102      -75.9238   28.4155  -75.2549 H         1 UNK         0.0547 
    103 H103      -77.9779   26.9296  -76.9623 H         1 UNK         0.0837 
    104 H104      -78.2826   28.1021  -75.6760 H         1 UNK         0.0837 
    105 H105      -77.5321   28.6195  -77.1710 H         1 UNK         0.0837 
    106 H106      -77.0121   25.7191  -75.0894 H         1 UNK         0.3020 
    107 H107      -74.5317   24.5406  -72.7983 H         1 UNK         0.1245 
    108 H108      -76.8454   23.9594  -71.6829 H         1 UNK         0.0781 
    109 H109      -77.4149   25.4729  -72.3183 H         1 UNK         0.0781 
    110 H110      -78.0005   26.4025  -69.9237 H         1 UNK         0.0836 
    111 H111      -76.7966   27.3928  -69.1359 H         1 UNK         0.0836 
    112 H112      -76.8070   23.2635  -73.8348 H         1 UNK         0.3022 
    113 H113      -75.9531   22.5702  -77.0721 H         1 UNK         0.0747 
    114 H114      -74.3290   20.9075  -76.1479 H         1 UNK         0.0793 
    115 H115      -75.8451   20.1394  -76.5840 H         1 UNK         0.0793 
    116 H116      -75.4757   20.4679  -74.8899 H         1 UNK         0.0793 
    117 H117      -77.7976   21.2328  -75.4037 H         1 UNK         0.3047 
    118 H118      -80.0375   21.7581  -75.7367 H         1 UNK         0.0822 
    119 H119      -79.2400   22.1917  -73.3878 H         1 UNK         0.0807 
    120 H120      -80.9290   22.6361  -73.5463 H         1 UNK         0.0807 
    121 H121      -79.6913   23.8876  -73.5321 H         1 UNK         0.0807 
    122 H122      -80.3585   24.5927  -76.3140 H         1 UNK         0.2946 
    123 H123      -82.5287   24.6371  -77.9668 H         1 UNK         0.1144 
    124 H124      -84.7862   24.1213  -75.9592 H         1 UNK         0.0793 
    125 H125      -84.5829   23.3412  -77.5207 H         1 UNK         0.0793 
    126 H126      -84.9388   25.0580  -77.4448 H         1 UNK         0.0793 
    127 H127      -82.3111   26.5966  -76.9552 H         1 UNK         0.2896 
@<TRIPOS>BOND
     1    1    2 1    
     2    1   67 1    
     3    1   68 1    
     4    1   69 1    
     5    2    3 2    
     6    2    4 am   BACKBONE|DICT|INTERRES
     7    4    5 1    
     8    4   70 1    
     9    5    6 1    
    10    5   65 1    
    11    5   71 1    
    12    6    7 1    
    13    6   72 1    
    14    6   73 1    
    15    7    8 1    
    16    8    9 1    
    17    8   74 1    
    18    8   75 1    
    19    9   10 ar   
    20    9   14 ar   
    21   10   11 ar   
    22   10   76 1    
    23   11   12 ar   
    24   11   48 1    
    25   12   13 ar   
    26   12   77 1    
    27   13   14 ar   
    28   13   15 1    
    29   14   78 1    
    30   15   16 1    
    31   15   79 1    
    32   15   80 1    
    33   16   17 1    
    34   17   18 1    
    35   17   81 1    
    36   17   82 1    
    37   18   19 1    
    38   18   22 1    
    39   18   83 1    
    40   19   20 am   BACKBONE|DICT|INTERRES
    41   19   21 2    
    42   20   84 1    
    43   20   85 1    
    44   22   23 am   BACKBONE|DICT|INTERRES
    45   22   86 1    
    46   23   24 2    
    47   23   25 1    
    48   25   26 1    
    49   25   27 1    
    50   25   87 1    
    51   26   88 1    
    52   26   89 1    
    53   26   90 1    
    54   27   28 am   BACKBONE|DICT|INTERRES
    55   27   91 1    
    56   28   29 2    
    57   28   30 1    
    58   30   31 1    
    59   30   32 1    
    60   30   92 1    
    61   31   93 1    
    62   31   94 1    
    63   31   95 1    
    64   32   33 am   BACKBONE|DICT|INTERRES
    65   32   96 1    
    66   33   34 2    
    67   33   35 1    
    68   35   36 1    
    69   35   37 1    
    70   35   97 1    
    71   36   98 1    
    72   36   99 1    
    73   36  100 1    
    74   37   38 am   BACKBONE|DICT|INTERRES
    75   37  101 1    
    76   38   39 2    
    77   38   40 1    
    78   40   41 1    
    79   40   42 1    
    80   40  102 1    
    81   41  103 1    
    82   41  104 1    
    83   41  105 1    
    84   42   43 am   BACKBONE|DICT|INTERRES
    85   42  106 1    
    86   43   44 2    
    87   43   45 1    
    88   45   46 1    
    89   45   49 1    
    90   45  107 1    
    91   46   47 1    
    92   46  108 1    
    93   46  109 1    
    94   47   48 1    
    95   48  110 1    
    96   48  111 1    
    97   49   50 am   BACKBONE|DICT|INTERRES
    98   49  112 1    
    99   50   51 2    
   100   50   52 1    
   101   52   53 1    
   102   52   54 1    
   103   52  113 1    
   104   53  114 1    
   105   53  115 1    
   106   53  116 1    
   107   54   55 am   BACKBONE|DICT|INTERRES
   108   54  117 1    
   109   55   56 2    
   110   55   57 1    
   111   57   58 1    
   112   57   59 1    
   113   57  118 1    
   114   58  119 1    
   115   58  120 1    
   116   58  121 1    
   117   59   60 am   BACKBONE|DICT|INTERRES
   118   59  122 1    
   119   60   61 2    
   120   60   62 1    
   121   62   63 1    
   122   62   64 1    
   123   62  123 1    
   124   63  124 1    
   125   63  125 1    
   126   63  126 1    
   127   64   65 am   BACKBONE|DICT|INTERRES
   128   64  127 1    
   129   65   66 2    
@<TRIPOS>SUBSTRUCTURE
     1 UNK         1 GROUP             0       ****    0 ROOT    
