@<TRIPOS>MOLECULE
3R135
127   129    1
SMALL
USER_CHARGES


@<TRIPOS>ATOM
      1 CA        -76.6498   28.7118  -75.1177 C.3       0 UNK        -0.1998 
      2 C         -77.9212   29.4874  -75.4527 C.2       0 UNK         0.4909 
      3 O         -77.8440   30.5170  -76.1189 O.2       0 UNK        -0.5240 
      4 N         -79.1125   29.0391  -75.0286 N.am      1 UNK        -0.4739 
      5 CA        -79.3841   27.8119  -74.2614 C.3       1 UNK         0.0864 
      6 C6        -80.8134   27.8044  -73.6569 C.3       11 UNK        -0.0881 
      7 S7        -81.2103   29.3397  -72.7421 S.3       11 UNK        -0.2682 
      8 C8        -80.8043   28.9073  -71.0190 C.3       11 UNK         0.0289 
      9 C9        -79.3621   28.4460  -70.8732 C.ar      11 UNK        -0.0687 
     10 C10       -79.0828   27.0995  -70.6368 C.ar      11 UNK        -0.0823 
     11 C11       -77.7659   26.6440  -70.5457 C.ar      11 UNK        -0.0830 
     12 C12       -76.7164   27.5646  -70.6929 C.ar      11 UNK        -0.1021 
     13 C13       -76.9788   28.9187  -70.9376 C.ar      11 UNK        -0.0753 
     14 C14       -78.3079   29.3535  -71.0047 C.ar      11 UNK        -0.0933 
     15 C15       -75.8239   29.9051  -71.1112 C.3       11 UNK         0.0166 
     16 S16       -76.0503   31.0113  -72.5453 S.3       11 UNK        -0.2615 
     17 C17       -74.4814   31.9432  -72.5756 C.3       11 UNK        -0.0865 
     18 CA        -73.6691   31.7179  -73.8881 C.3       10 UNK         0.0862 
     19 C         -72.4663   32.7028  -74.0282 C.2       10 UNK         0.5551 
     20 N         -71.3358   32.2997  -74.5991 N.am      10 UNK        -0.7319 
     21 O         -72.5671   33.8653  -73.6429 O.2       10 UNK        -0.5018 
     22 N         -73.3218   30.3075  -74.1356 N.am      10 UNK        -0.4509 
     23 C         -72.5534   29.5385  -73.3527 C.2       10 UNK         0.4899 
     24 O         -72.1024   29.8904  -72.2626 O.2       10 UNK        -0.4839 
     25 CA        -72.2069   28.1361  -73.8777 C.3       9 UNK         0.0222 
     26 CB        -73.1541   27.1006  -73.2656 C.3       9 UNK        -0.1966 
     27 N         -72.2259   28.0047  -75.3392 N.am      9 UNK        -0.4218 
     28 C         -71.3918   28.6474  -76.1726 C.2       9 UNK         0.5020 
     29 O         -70.5644   29.4796  -75.7960 O.2       9 UNK        -0.5274 
     30 CA        -71.4772   28.3186  -77.6757 C.3       8 UNK         0.0270 
     31 CB        -70.3507   27.3510  -78.0745 C.3       8 UNK        -0.1976 
     32 N         -72.7613   27.7551  -78.0987 N.am      8 UNK        -0.4313 
     33 C         -73.9249   28.4172  -78.0969 C.2       8 UNK         0.5041 
     34 O         -74.0414   29.5921  -77.7469 O.2       8 UNK        -0.5577 
     35 CA        -75.1755   27.6348  -78.5394 C.3       7 UNK         0.0284 
     36 CB        -75.4384   27.8599  -80.0372 C.3       7 UNK        -0.1958 
     37 N         -75.1625   26.1888  -78.2649 N.am      7 UNK        -0.4454 
     38 C         -74.9629   25.6142  -77.0698 C.2       7 UNK         0.5089 
     39 O         -74.5729   26.2291  -76.0760 O.2       7 UNK        -0.5125 
     40 CA        -75.2924   24.1108  -76.9851 C.3       6 UNK         0.0408 
     41 CB        -74.1021   23.2428  -77.4413 C.3       6 UNK        -0.1791 
     42 N         -75.8034   23.7398  -75.6540 N.am      6 UNK        -0.4762 
     43 C         -75.1096   23.6015  -74.5127 C.2       6 UNK         0.5007 
     44 O         -73.8799   23.5628  -74.4555 O.2       6 UNK        -0.5032 
     45 CA        -75.9015   23.5061  -73.1920 C.3       5 UNK         0.0783 
     46 C46       -75.6343   24.7642  -72.3290 C.3       11 UNK        -0.0857 
     47 S47       -75.8843   24.4882  -70.5469 S.3       11 UNK        -0.2512 
     48 C48       -77.5576   25.1524  -70.2732 C.3       11 UNK         0.0225 
     49 N         -77.3437   23.3016  -73.4002 N.am      5 UNK        -0.4615 
     50 C         -77.9554   22.1203  -73.2463 C.2       4 UNK         0.5053 
     51 O         -77.3556   21.0655  -73.0368 O.2       4 UNK        -0.5105 
     52 CA        -79.4892   22.0972  -73.3122 C.3       4 UNK         0.0263 
     53 CB        -80.1174   22.7620  -72.0753 C.3       4 UNK        -0.1981 
     54 N         -80.0141   22.7387  -74.5181 N.am      4 UNK        -0.4224 
     55 C         -80.8566   22.1493  -75.3805 C.2       3 UNK         0.4895 
     56 O         -81.2133   20.9732  -75.2934 O.2       3 UNK        -0.5091 
     57 CA        -81.4396   23.0045  -76.5229 C.3       3 UNK         0.0250 
     58 CB        -82.9091   23.3532  -76.2319 C.3       3 UNK        -0.1996 
     59 N         -80.7044   24.2434  -76.7788 N.am      3 UNK        -0.4254 
     60 C         -79.4867   24.3053  -77.3298 C.2       2 UNK         0.5004 
     61 O         -78.8538   23.3227  -77.7140 O.2       2 UNK        -0.5226 
     62 CA        -78.8471   25.6965  -77.4409 C.3       2 UNK         0.0269 
     63 CB        -79.0775   26.2924  -78.8380 C.3       2 UNK        -0.1926 
     64 N         -79.2656   26.6671  -76.4255 N.am      2 UNK        -0.4687 
     65 C         -79.1353   26.5375  -75.0954 C.2       1 UNK         0.5165 
     66 O         -78.7930   25.4925  -74.5364 O.2       1 UNK        -0.5079 
     67 H67       -76.6196   27.7696  -75.6586 H         1 UNK         0.0900 
     68 H68       -75.7693   29.2860  -75.4031 H         1 UNK         0.0900 
     69 H69       -76.5746   28.5033  -74.0514 H         1 UNK         0.0900 
     70 H70       -79.9289   29.6006  -75.2260 H         1 UNK         0.2959 
     71 H71       -78.6743   27.7757  -73.4350 H         1 UNK         0.1079 
     72 H72       -80.9487   26.9461  -72.9957 H         1 UNK         0.0837 
     73 H73       -81.5599   27.6954  -74.4461 H         1 UNK         0.0837 
     74 H74       -81.4977   28.1400  -70.6709 H         1 UNK         0.0685 
     75 H75       -80.9701   29.7802  -70.3860 H         1 UNK         0.0685 
     76 H76       -79.8989   26.3973  -70.5310 H         1 UNK         0.1434 
     77 H77       -75.6902   27.2341  -70.6192 H         1 UNK         0.1329 
     78 H78       -78.5258   30.3963  -71.1909 H         1 UNK         0.1335 
     79 H79       -74.8815   29.3688  -71.2326 H         1 UNK         0.0680 
     80 H80       -75.7312   30.5055  -70.2054 H         1 UNK         0.0680 
     81 H81       -73.8815   31.7016  -71.6974 H         1 UNK         0.1032 
     82 H82       -74.7425   32.9975  -72.4698 H         1 UNK         0.1032 
     83 H83       -74.3278   31.9873  -74.7146 H         1 UNK         0.0461 
     84 H84       -70.5733   32.9515  -74.6924 H         1 UNK         0.3453 
     85 H85       -71.2269   31.3478  -74.9263 H         1 UNK         0.3453 
     86 H86       -73.6120   29.9368  -75.0293 H         1 UNK         0.2984 
     87 H87       -71.1932   27.9057  -73.5437 H         1 UNK         0.0554 
     88 H88       -72.8793   26.0925  -73.5766 H         1 UNK         0.0847 
     89 H89       -74.1886   27.2759  -73.5641 H         1 UNK         0.0847 
     90 H90       -73.1177   27.1292  -72.1756 H         1 UNK         0.0847 
     91 H91       -72.9097   27.3596  -75.7254 H         1 UNK         0.3141 
     92 H92       -71.3305   29.2550  -78.2183 H         1 UNK         0.0743 
     93 H93       -70.4533   26.3851  -77.5781 H         1 UNK         0.0784 
     94 H94       -70.3370   27.1779  -79.1508 H         1 UNK         0.0784 
     95 H95       -69.3745   27.7549  -77.8018 H         1 UNK         0.0784 
     96 H96       -72.7651   26.7891  -78.3925 H         1 UNK         0.3213 
     97 H97       -76.0187   28.0552  -77.9884 H         1 UNK         0.0855 
     98 H98       -74.6488   27.4295  -80.6545 H         1 UNK         0.0814 
     99 H99       -75.4882   28.9250  -80.2691 H         1 UNK         0.0814 
    100 H100      -76.3860   27.4205  -80.3486 H         1 UNK         0.0814 
    101 H101      -75.4393   25.5956  -79.0344 H         1 UNK         0.3105 
    102 H102      -76.1145   23.9101  -77.6729 H         1 UNK         0.0547 
    103 H103      -74.3023   22.1819  -77.2923 H         1 UNK         0.0837 
    104 H104      -73.1828   23.4907  -76.9100 H         1 UNK         0.0837 
    105 H105      -73.9017   23.3876  -78.5033 H         1 UNK         0.0837 
    106 H106      -76.8097   23.7324  -75.5687 H         1 UNK         0.3020 
    107 H107      -75.4755   22.6482  -72.6661 H         1 UNK         0.1245 
    108 H108      -76.2156   25.6165  -72.6847 H         1 UNK         0.0781 
    109 H109      -74.5898   25.0599  -72.4011 H         1 UNK         0.0781 
    110 H110      -77.8342   24.9524  -69.2373 H         1 UNK         0.0836 
    111 H111      -78.2437   24.5747  -70.8889 H         1 UNK         0.0836 
    112 H112      -77.8919   24.1320  -73.6083 H         1 UNK         0.3022 
    113 H113      -79.7730   21.0427  -73.2887 H         1 UNK         0.0747 
    114 H114      -81.1790   22.5243  -72.0044 H         1 UNK         0.0793 
    115 H115      -79.6470   22.4150  -71.1540 H         1 UNK         0.0793 
    116 H116      -80.0285   23.8479  -72.1110 H         1 UNK         0.0793 
    117 H117      -79.7456   23.7037  -74.6757 H         1 UNK         0.3047 
    118 H118      -81.4056   22.3967  -77.4299 H         1 UNK         0.0822 
    119 H119      -83.3627   23.8915  -77.0644 H         1 UNK         0.0807 
    120 H120      -83.0087   23.9693  -75.3372 H         1 UNK         0.0807 
    121 H121      -83.5013   22.4508  -76.0728 H         1 UNK         0.0807 
    122 H122      -81.1459   25.1066  -76.4971 H         1 UNK         0.2946 
    123 H123      -77.7776   25.5561  -77.3083 H         1 UNK         0.1144 
    124 H124      -78.5357   27.2297  -78.9652 H         1 UNK         0.0793 
    125 H125      -80.1344   26.4877  -79.0233 H         1 UNK         0.0793 
    126 H126      -78.7301   25.6117  -79.6168 H         1 UNK         0.0793 
    127 H127      -79.5665   27.5682  -76.7703 H         1 UNK         0.2896 
@<TRIPOS>BOND
     1    1    2 1    
     2    1   67 1    
     3    1   68 1    
     4    1   69 1    
     5    2    3 2    
     6    2    4 am   BACKBONE|DICT|INTERRES
     7    4    5 1    
     8    4   70 1    
     9    5    6 1    
    10    5   65 1    
    11    5   71 1    
    12    6    7 1    
    13    6   72 1    
    14    6   73 1    
    15    7    8 1    
    16    8    9 1    
    17    8   74 1    
    18    8   75 1    
    19    9   10 ar   
    20    9   14 ar   
    21   10   11 ar   
    22   10   76 1    
    23   11   12 ar   
    24   11   48 1    
    25   12   13 ar   
    26   12   77 1    
    27   13   14 ar   
    28   13   15 1    
    29   14   78 1    
    30   15   16 1    
    31   15   79 1    
    32   15   80 1    
    33   16   17 1    
    34   17   18 1    
    35   17   81 1    
    36   17   82 1    
    37   18   19 1    
    38   18   22 1    
    39   18   83 1    
    40   19   20 am   BACKBONE|DICT|INTERRES
    41   19   21 2    
    42   20   84 1    
    43   20   85 1    
    44   22   23 am   BACKBONE|DICT|INTERRES
    45   22   86 1    
    46   23   24 2    
    47   23   25 1    
    48   25   26 1    
    49   25   27 1    
    50   25   87 1    
    51   26   88 1    
    52   26   89 1    
    53   26   90 1    
    54   27   28 am   BACKBONE|DICT|INTERRES
    55   27   91 1    
    56   28   29 2    
    57   28   30 1    
    58   30   31 1    
    59   30   32 1    
    60   30   92 1    
    61   31   93 1    
    62   31   94 1    
    63   31   95 1    
    64   32   33 am   BACKBONE|DICT|INTERRES
    65   32   96 1    
    66   33   34 2    
    67   33   35 1    
    68   35   36 1    
    69   35   37 1    
    70   35   97 1    
    71   36   98 1    
    72   36   99 1    
    73   36  100 1    
    74   37   38 am   BACKBONE|DICT|INTERRES
    75   37  101 1    
    76   38   39 2    
    77   38   40 1    
    78   40   41 1    
    79   40   42 1    
    80   40  102 1    
    81   41  103 1    
    82   41  104 1    
    83   41  105 1    
    84   42   43 am   BACKBONE|DICT|INTERRES
    85   42  106 1    
    86   43   44 2    
    87   43   45 1    
    88   45   46 1    
    89   45   49 1    
    90   45  107 1    
    91   46   47 1    
    92   46  108 1    
    93   46  109 1    
    94   47   48 1    
    95   48  110 1    
    96   48  111 1    
    97   49   50 am   BACKBONE|DICT|INTERRES
    98   49  112 1    
    99   50   51 2    
   100   50   52 1    
   101   52   53 1    
   102   52   54 1    
   103   52  113 1    
   104   53  114 1    
   105   53  115 1    
   106   53  116 1    
   107   54   55 am   BACKBONE|DICT|INTERRES
   108   54  117 1    
   109   55   56 2    
   110   55   57 1    
   111   57   58 1    
   112   57   59 1    
   113   57  118 1    
   114   58  119 1    
   115   58  120 1    
   116   58  121 1    
   117   59   60 am   BACKBONE|DICT|INTERRES
   118   59  122 1    
   119   60   61 2    
   120   60   62 1    
   121   62   63 1    
   122   62   64 1    
   123   62  123 1    
   124   63  124 1    
   125   63  125 1    
   126   63  126 1    
   127   64   65 am   BACKBONE|DICT|INTERRES
   128   64  127 1    
   129   65   66 2    
@<TRIPOS>SUBSTRUCTURE
     1 UNK         1 GROUP             0       ****    0 ROOT    
