@<TRIPOS>MOLECULE
3R135
127   129    1
SMALL
USER_CHARGES


@<TRIPOS>ATOM
      1 CA        -79.1844   30.3690  -76.4524 C.3       0 UNK        -0.1998 
      2 C         -79.1146   29.3408  -75.3337 C.2       0 UNK         0.4909 
      3 O         -78.0436   28.7941  -75.0721 O.2       0 UNK        -0.5240 
      4 N         -80.2511   29.0794  -74.6785 N.am      1 UNK        -0.4739 
      5 CA        -80.4054   28.0490  -73.6407 C.3       1 UNK         0.0864 
      6 C6        -81.2524   28.5575  -72.4458 C.3       11 UNK        -0.0881 
      7 S7        -80.5586   30.0560  -71.6603 S.3       11 UNK        -0.2682 
      8 C8        -80.0414   29.4516  -70.0210 C.3       11 UNK         0.0289 
      9 C9        -78.6447   28.8469  -70.0461 C.ar      11 UNK        -0.0687 
     10 C10       -78.4671   27.4833  -70.2936 C.ar      11 UNK        -0.0823 
     11 C11       -77.1839   26.9236  -70.3073 C.ar      11 UNK        -0.0830 
     12 C12       -76.0758   27.7377  -70.0530 C.ar      11 UNK        -0.1021 
     13 C13       -76.2416   29.0972  -69.7778 C.ar      11 UNK        -0.0753 
     14 C14       -77.5280   29.6472  -69.7842 C.ar      11 UNK        -0.0933 
     15 C15       -75.0413   29.9566  -69.4054 C.3       11 UNK         0.0166 
     16 S16       -74.7390   31.2946  -70.5988 S.3       11 UNK        -0.2615 
     17 C17       -73.7711   30.4729  -71.9175 C.3       11 UNK        -0.0865 
     18 CA        -74.5548   30.2063  -73.2373 C.3       10 UNK         0.0862 
     19 C         -75.2874   31.4466  -73.8268 C.2       10 UNK         0.5551 
     20 N         -76.4036   31.2366  -74.5088 N.am      10 UNK        -0.7319 
     21 O         -74.8490   32.5874  -73.6946 O.2       10 UNK        -0.5018 
     22 N         -73.7285   29.5647  -74.2745 N.am      10 UNK        -0.4509 
     23 C         -72.6802   30.1099  -74.9123 C.2       10 UNK         0.4899 
     24 O         -72.1340   31.1606  -74.5730 O.2       10 UNK        -0.4839 
     25 CA        -72.1864   29.3746  -76.1724 C.3       9 UNK         0.0222 
     26 CB        -70.8719   29.9485  -76.7451 C.3       9 UNK        -0.1966 
     27 N         -72.1016   27.9233  -76.0034 N.am      9 UNK        -0.4218 
     28 C         -71.2733   27.2227  -75.2153 C.2       9 UNK         0.5020 
     29 O         -70.4323   27.7317  -74.4731 O.2       9 UNK        -0.5274 
     30 CA        -71.3952   25.6838  -75.2583 C.3       8 UNK         0.0270 
     31 CB        -71.9454   25.1508  -73.9252 C.3       8 UNK        -0.1976 
     32 N         -72.2341   25.1848  -76.3547 N.am      8 UNK        -0.4313 
     33 C         -71.9071   25.2094  -77.6551 C.2       8 UNK         0.5041 
     34 O         -70.8093   25.5706  -78.0795 O.2       8 UNK        -0.5577 
     35 CA        -73.0100   24.8136  -78.6511 C.3       7 UNK         0.0284 
     36 CB        -73.0272   23.2933  -78.8805 C.3       7 UNK        -0.1958 
     37 N         -74.3322   25.2676  -78.2074 N.am      7 UNK        -0.4454 
     38 C         -74.7612   26.5365  -78.2774 C.2       7 UNK         0.5089 
     39 O         -74.1091   27.4510  -78.7797 O.2       7 UNK        -0.5125 
     40 CA        -76.1283   26.8490  -77.6434 C.3       6 UNK         0.0408 
     41 CB        -77.2673   26.5962  -78.6423 C.3       6 UNK        -0.1791 
     42 N         -76.3740   26.0813  -76.4225 N.am      6 UNK        -0.4762 
     43 C         -75.7117   26.2637  -75.2687 C.2       6 UNK         0.5007 
     44 O         -74.8348   27.1116  -75.1113 O.2       6 UNK        -0.5032 
     45 CA        -76.0646   25.3191  -74.1012 C.3       5 UNK         0.0783 
     46 C46       -77.2824   25.9002  -73.3505 C.3       11 UNK        -0.0857 
     47 S47       -77.9084   24.8243  -72.0161 S.3       11 UNK        -0.2512 
     48 C48       -76.9804   25.4364  -70.5732 C.3       11 UNK         0.0225 
     49 N         -76.3279   23.9468  -74.5334 N.am      5 UNK        -0.4615 
     50 C         -75.6102   23.1882  -75.3684 C.2       4 UNK         0.5053 
     51 O         -74.4856   23.4879  -75.7670 O.2       4 UNK        -0.5105 
     52 CA        -76.3005   21.9205  -75.9116 C.3       4 UNK         0.0263 
     53 CB        -75.6676   20.6633  -75.2955 C.3       4 UNK        -0.1981 
     54 N         -77.7585   21.8823  -75.7028 N.am      4 UNK        -0.4224 
     55 C         -78.6487   22.7953  -76.1279 C.2       3 UNK         0.4895 
     56 O         -78.3357   23.7737  -76.8123 O.2       3 UNK        -0.5091 
     57 CA        -80.1051   22.6094  -75.6547 C.3       3 UNK         0.0250 
     58 CB        -80.2093   21.9331  -74.2715 C.3       3 UNK        -0.1996 
     59 N         -80.8115   23.8899  -75.5866 N.am      3 UNK        -0.4254 
     60 C         -81.4693   24.4702  -76.5944 C.2       2 UNK         0.5004 
     61 O         -81.5626   23.9810  -77.7213 O.2       2 UNK        -0.5226 
     62 CA        -82.1756   25.8082  -76.3054 C.3       2 UNK         0.0269 
     63 CB        -83.5688   25.5652  -75.6919 C.3       2 UNK        -0.1926 
     64 N         -81.4177   26.7944  -75.5160 N.am      2 UNK        -0.4687 
     65 C         -81.0233   26.7574  -74.2313 C.2       1 UNK         0.5165 
     66 O         -81.1500   25.7669  -73.5115 O.2       1 UNK        -0.5079 
     67 H67       -78.8196   31.3340  -76.1038 H         1 UNK         0.0900 
     68 H68       -80.2033   30.5014  -76.8158 H         1 UNK         0.0900 
     69 H69       -78.5668   30.0528  -77.2928 H         1 UNK         0.0900 
     70 H70       -81.0856   29.6051  -74.8992 H         1 UNK         0.2959 
     71 H71       -79.4260   27.7792  -73.2433 H         1 UNK         0.1079 
     72 H72       -82.2671   28.7930  -72.7724 H         1 UNK         0.0837 
     73 H73       -81.3577   27.7743  -71.6929 H         1 UNK         0.0837 
     74 H74       -80.7658   28.7322  -69.6363 H         1 UNK         0.0685 
     75 H75       -80.0608   30.2915  -69.3248 H         1 UNK         0.0685 
     76 H76       -79.3280   26.8561  -70.4804 H         1 UNK         0.1434 
     77 H77       -75.0833   27.3080  -70.0441 H         1 UNK         0.1329 
     78 H78       -77.6592   30.6993  -69.5706 H         1 UNK         0.1335 
     79 H79       -75.2298   30.4051  -68.4290 H         1 UNK         0.0680 
     80 H80       -74.1393   29.3540  -69.2891 H         1 UNK         0.0680 
     81 H81       -72.9081   31.1095  -72.1145 H         1 UNK         0.1032 
     82 H82       -73.3629   29.5343  -71.5409 H         1 UNK         0.1032 
     83 H83       -75.3286   29.4762  -72.9919 H         1 UNK         0.0461 
     84 H84       -76.8829   32.0291  -74.9028 H         1 UNK         0.3453 
     85 H85       -76.7780   30.3018  -74.6334 H         1 UNK         0.3453 
     86 H86       -74.1017   28.6876  -74.6354 H         1 UNK         0.2984 
     87 H87       -72.9590   29.5336  -76.9262 H         1 UNK         0.0554 
     88 H88       -70.5691   29.4199  -77.6490 H         1 UNK         0.0847 
     89 H89       -70.0532   29.8843  -76.0278 H         1 UNK         0.0847 
     90 H90       -70.9880   31.0002  -77.0097 H         1 UNK         0.0847 
     91 H91       -72.7878   27.3928  -76.5223 H         1 UNK         0.3141 
     92 H92       -70.3893   25.2824  -75.3974 H         1 UNK         0.0743 
     93 H93       -71.2777   25.4026  -73.1003 H         1 UNK         0.0784 
     94 H94       -72.9190   25.5810  -73.6949 H         1 UNK         0.0784 
     95 H95       -72.0495   24.0656  -73.9394 H         1 UNK         0.0784 
     96 H96       -73.1306   24.7775  -76.0978 H         1 UNK         0.3213 
     97 H97       -72.7836   25.2950  -79.6053 H         1 UNK         0.0855 
     98 H98       -73.2284   22.7413  -77.9622 H         1 UNK         0.0814 
     99 H99       -72.0642   22.9489  -79.2597 H         1 UNK         0.0814 
    100 H100      -73.7825   23.0113  -79.6142 H         1 UNK         0.0814 
    101 H101      -74.9038   24.5931  -77.7173 H         1 UNK         0.3105 
    102 H102      -76.1393   27.9091  -77.3799 H         1 UNK         0.0547 
    103 H103      -77.3319   25.5447  -78.9253 H         1 UNK         0.0837 
    104 H104      -78.2307   26.8886  -78.2239 H         1 UNK         0.0837 
    105 H105      -77.1214   27.1738  -79.5560 H         1 UNK         0.0837 
    106 H106      -77.0768   25.3490  -76.4755 H         1 UNK         0.3020 
    107 H107      -75.2125   25.2909  -73.4212 H         1 UNK         0.1245 
    108 H108      -78.1095   26.0362  -74.0491 H         1 UNK         0.0781 
    109 H109      -77.0561   26.8946  -72.9617 H         1 UNK         0.0781 
    110 H110      -75.9236   25.2098  -70.7228 H         1 UNK         0.0836 
    111 H111      -77.2933   24.8764  -69.6911 H         1 UNK         0.0836 
    112 H112      -77.2227   23.5843  -74.2412 H         1 UNK         0.3022 
    113 H113      -76.1248   21.9020  -76.9890 H         1 UNK         0.0747 
    114 H114      -76.0730   19.7544  -75.7407 H         1 UNK         0.0793 
    115 H115      -74.5891   20.6478  -75.4608 H         1 UNK         0.0793 
    116 H116      -75.8325   20.6145  -74.2184 H         1 UNK         0.0793 
    117 H117      -78.1038   21.1146  -75.1446 H         1 UNK         0.3047 
    118 H118      -80.6002   21.9659  -76.3851 H         1 UNK         0.0822 
    119 H119      -79.8416   20.9068  -74.2919 H         1 UNK         0.0807 
    120 H120      -81.2463   21.8829  -73.9382 H         1 UNK         0.0807 
    121 H121      -79.6475   22.4769  -73.5103 H         1 UNK         0.0807 
    122 H122      -80.7943   24.3869  -74.6994 H         1 UNK         0.2946 
    123 H123      -82.3319   26.2775  -77.2787 H         1 UNK         0.1144 
    124 H124      -84.1641   24.9066  -76.3259 H         1 UNK         0.0793 
    125 H125      -84.1233   26.4975  -75.5845 H         1 UNK         0.0793 
    126 H126      -83.5063   25.0969  -74.7091 H         1 UNK         0.0793 
    127 H127      -81.2017   27.6465  -76.0139 H         1 UNK         0.2896 
@<TRIPOS>BOND
     1    1    2 1    
     2    1   67 1    
     3    1   68 1    
     4    1   69 1    
     5    2    3 2    
     6    2    4 am   BACKBONE|DICT|INTERRES
     7    4    5 1    
     8    4   70 1    
     9    5    6 1    
    10    5   65 1    
    11    5   71 1    
    12    6    7 1    
    13    6   72 1    
    14    6   73 1    
    15    7    8 1    
    16    8    9 1    
    17    8   74 1    
    18    8   75 1    
    19    9   10 ar   
    20    9   14 ar   
    21   10   11 ar   
    22   10   76 1    
    23   11   12 ar   
    24   11   48 1    
    25   12   13 ar   
    26   12   77 1    
    27   13   14 ar   
    28   13   15 1    
    29   14   78 1    
    30   15   16 1    
    31   15   79 1    
    32   15   80 1    
    33   16   17 1    
    34   17   18 1    
    35   17   81 1    
    36   17   82 1    
    37   18   19 1    
    38   18   22 1    
    39   18   83 1    
    40   19   20 am   BACKBONE|DICT|INTERRES
    41   19   21 2    
    42   20   84 1    
    43   20   85 1    
    44   22   23 am   BACKBONE|DICT|INTERRES
    45   22   86 1    
    46   23   24 2    
    47   23   25 1    
    48   25   26 1    
    49   25   27 1    
    50   25   87 1    
    51   26   88 1    
    52   26   89 1    
    53   26   90 1    
    54   27   28 am   BACKBONE|DICT|INTERRES
    55   27   91 1    
    56   28   29 2    
    57   28   30 1    
    58   30   31 1    
    59   30   32 1    
    60   30   92 1    
    61   31   93 1    
    62   31   94 1    
    63   31   95 1    
    64   32   33 am   BACKBONE|DICT|INTERRES
    65   32   96 1    
    66   33   34 2    
    67   33   35 1    
    68   35   36 1    
    69   35   37 1    
    70   35   97 1    
    71   36   98 1    
    72   36   99 1    
    73   36  100 1    
    74   37   38 am   BACKBONE|DICT|INTERRES
    75   37  101 1    
    76   38   39 2    
    77   38   40 1    
    78   40   41 1    
    79   40   42 1    
    80   40  102 1    
    81   41  103 1    
    82   41  104 1    
    83   41  105 1    
    84   42   43 am   BACKBONE|DICT|INTERRES
    85   42  106 1    
    86   43   44 2    
    87   43   45 1    
    88   45   46 1    
    89   45   49 1    
    90   45  107 1    
    91   46   47 1    
    92   46  108 1    
    93   46  109 1    
    94   47   48 1    
    95   48  110 1    
    96   48  111 1    
    97   49   50 am   BACKBONE|DICT|INTERRES
    98   49  112 1    
    99   50   51 2    
   100   50   52 1    
   101   52   53 1    
   102   52   54 1    
   103   52  113 1    
   104   53  114 1    
   105   53  115 1    
   106   53  116 1    
   107   54   55 am   BACKBONE|DICT|INTERRES
   108   54  117 1    
   109   55   56 2    
   110   55   57 1    
   111   57   58 1    
   112   57   59 1    
   113   57  118 1    
   114   58  119 1    
   115   58  120 1    
   116   58  121 1    
   117   59   60 am   BACKBONE|DICT|INTERRES
   118   59  122 1    
   119   60   61 2    
   120   60   62 1    
   121   62   63 1    
   122   62   64 1    
   123   62  123 1    
   124   63  124 1    
   125   63  125 1    
   126   63  126 1    
   127   64   65 am   BACKBONE|DICT|INTERRES
   128   64  127 1    
   129   65   66 2    
@<TRIPOS>SUBSTRUCTURE
     1 UNK         1 GROUP             0       ****    0 ROOT    
