@<TRIPOS>MOLECULE
3R135
127   129    1
SMALL
USER_CHARGES


@<TRIPOS>ATOM
      1 CA        -84.2079   25.5187  -70.6356 C.3       0 UNK        -0.1998 
      2 C         -84.0055   26.1033  -72.0252 C.2       0 UNK         0.4909 
      3 O         -84.8959   25.9992  -72.8693 O.2       0 UNK        -0.5240 
      4 N         -82.8405   26.7178  -72.2692 N.am      1 UNK        -0.4739 
      5 CA        -82.4739   27.3452  -73.5483 C.3       1 UNK         0.0864 
      6 C6        -81.2773   28.3154  -73.3957 C.3       11 UNK        -0.0881 
      7 S7        -81.5755   29.6081  -72.1449 S.3       11 UNK        -0.2682 
      8 C8        -80.3515   30.8684  -72.6406 C.3       11 UNK         0.0289 
      9 C9        -78.8979   30.3953  -72.6029 C.ar      11 UNK        -0.0687 
     10 C10       -78.4388   29.5003  -71.6303 C.ar      11 UNK        -0.0823 
     11 C11       -77.1014   29.0972  -71.6013 C.ar      11 UNK        -0.0830 
     12 C12       -76.2105   29.6172  -72.5469 C.ar      11 UNK        -0.1021 
     13 C13       -76.6447   30.5267  -73.5209 C.ar      11 UNK        -0.0753 
     14 C14       -77.9915   30.9025  -73.5380 C.ar      11 UNK        -0.0933 
     15 C15       -75.7160   31.1464  -74.5696 C.3       11 UNK         0.0166 
     16 S16       -74.0901   30.3469  -74.7887 S.3       11 UNK        -0.2615 
     17 C17       -73.0682   31.1890  -73.5276 C.3       11 UNK        -0.0865 
     18 CA        -71.9258   30.3077  -72.9492 C.3       10 UNK         0.0862 
     19 C         -72.4406   29.3092  -71.8711 C.2       10 UNK         0.5551 
     20 N         -72.3420   28.0016  -72.0734 N.am      10 UNK        -0.7319 
     21 O         -72.9240   29.7357  -70.8256 O.2       10 UNK        -0.5018 
     22 N         -71.1052   29.7102  -74.0158 N.am      10 UNK        -0.4509 
     23 C         -69.8638   29.2337  -73.8719 C.2       10 UNK         0.4899 
     24 O         -69.2242   29.3020  -72.8211 O.2       10 UNK        -0.4839 
     25 CA        -69.2507   28.5442  -75.1090 C.3       9 UNK         0.0222 
     26 CB        -67.7765   28.1502  -74.8974 C.3       9 UNK        -0.1966 
     27 N         -70.0110   27.3509  -75.4974 N.am      9 UNK        -0.4218 
     28 C         -71.1786   27.3602  -76.1538 C.2       9 UNK         0.5020 
     29 O         -71.7189   28.3977  -76.5463 O.2       9 UNK        -0.5274 
     30 CA        -71.8476   25.9930  -76.3874 C.3       8 UNK         0.0270 
     31 CB        -72.0563   25.2267  -75.0667 C.3       8 UNK        -0.1976 
     32 N         -73.1467   26.1726  -77.0376 N.am      8 UNK        -0.4313 
     33 C         -73.3491   26.1478  -78.3625 C.2       8 UNK         0.5041 
     34 O         -72.4668   25.8639  -79.1757 O.2       8 UNK        -0.5577 
     35 CA        -74.7557   26.4957  -78.8872 C.3       7 UNK         0.0284 
     36 CB        -75.2566   25.4483  -79.8992 C.3       7 UNK        -0.1958 
     37 N         -75.7323   26.6259  -77.8014 N.am      7 UNK        -0.4454 
     38 C         -76.2766   27.7848  -77.4055 C.2       7 UNK         0.5089 
     39 O         -76.0772   28.8603  -77.9714 O.2       7 UNK        -0.5125 
     40 CA        -77.2030   27.7647  -76.1751 C.3       6 UNK         0.0408 
     41 CB        -78.6782   27.8200  -76.6007 C.3       6 UNK        -0.1791 
     42 N         -77.0052   26.6488  -75.2440 N.am      6 UNK        -0.4762 
     43 C         -75.8864   26.4383  -74.5330 C.2       6 UNK         0.5007 
     44 O         -74.8341   27.0397  -74.7358 O.2       6 UNK        -0.5032 
     45 CA        -75.9307   25.3527  -73.4443 C.3       5 UNK         0.0783 
     46 C46       -76.6741   25.8279  -72.1698 C.3       11 UNK        -0.0857 
     47 S47       -75.5637   26.7868  -71.0859 S.3       11 UNK        -0.2512 
     48 C48       -76.6293   28.1471  -70.5036 C.3       11 UNK         0.0225 
     49 N         -76.5009   24.1244  -73.9955 N.am      5 UNK        -0.4615 
     50 C         -75.8071   22.9946  -74.1946 C.2       4 UNK         0.5053 
     51 O         -74.6642   22.8066  -73.7771 O.2       4 UNK        -0.5105 
     52 CA        -76.4808   21.8830  -75.0241 C.3       4 UNK         0.0263 
     53 CB        -77.1258   20.8402  -74.0969 C.3       4 UNK        -0.1981 
     54 N         -77.4869   22.3652  -75.9747 N.am      4 UNK        -0.4224 
     55 C         -77.2852   23.2835  -76.9315 C.2       3 UNK         0.4895 
     56 O         -76.1925   23.7919  -77.1762 O.2       3 UNK        -0.5091 
     57 CA        -78.5245   23.7787  -77.6971 C.3       3 UNK         0.0250 
     58 CB        -78.6668   23.0242  -79.0279 C.3       3 UNK        -0.1996 
     59 N         -79.7847   23.6897  -76.9450 N.am      3 UNK        -0.4254 
     60 C         -80.0264   24.2454  -75.7481 C.2       2 UNK         0.5004 
     61 O         -79.1848   24.8686  -75.0926 O.2       2 UNK        -0.5226 
     62 CA        -81.4203   23.9952  -75.1541 C.3       2 UNK         0.0269 
     63 CB        -81.4306   22.6741  -74.3675 C.3       2 UNK        -0.1926 
     64 N         -81.8219   25.0791  -74.2588 N.am      2 UNK        -0.4687 
     65 C         -82.1733   26.3108  -74.6545 C.2       1 UNK         0.5165 
     66 O         -82.2634   26.6458  -75.8367 O.2       1 UNK        -0.5079 
     67 H67       -83.3454   25.6893  -69.9916 H         1 UNK         0.0900 
     68 H68       -85.0787   25.9710  -70.1619 H         1 UNK         0.0900 
     69 H69       -84.3750   24.4439  -70.7014 H         1 UNK         0.0900 
     70 H70       -82.1563   26.8030  -71.5308 H         1 UNK         0.2959 
     71 H71       -83.3337   27.9255  -73.8912 H         1 UNK         0.1079 
     72 H72       -81.0708   28.8078  -74.3479 H         1 UNK         0.0837 
     73 H73       -80.3688   27.7725  -73.1261 H         1 UNK         0.0837 
     74 H74       -80.6096   31.2201  -73.6408 H         1 UNK         0.0685 
     75 H75       -80.4511   31.7277  -71.9766 H         1 UNK         0.0685 
     76 H76       -79.1242   29.1217  -70.8849 H         1 UNK         0.1434 
     77 H77       -75.1782   29.3060  -72.5127 H         1 UNK         0.1329 
     78 H78       -78.3353   31.6074  -74.2831 H         1 UNK         0.1335 
     79 H79       -75.5697   32.2026  -74.3395 H         1 UNK         0.0680 
     80 H80       -76.2182   31.1129  -75.5378 H         1 UNK         0.0680 
     81 H81       -72.6353   32.0738  -73.9963 H         1 UNK         0.1032 
     82 H82       -73.7070   31.5687  -72.7274 H         1 UNK         0.1032 
     83 H83       -71.2669   30.9855  -72.4029 H         1 UNK         0.0461 
     84 H84       -71.9642   27.6525  -72.9372 H         1 UNK         0.3453 
     85 H85       -72.6944   27.3682  -71.3739 H         1 UNK         0.3453 
     86 H86       -71.5768   29.5538  -74.9025 H         1 UNK         0.2984 
     87 H87       -69.2829   29.2644  -75.9294 H         1 UNK         0.0554 
     88 H88       -67.1737   29.0209  -74.6352 H         1 UNK         0.0847 
     89 H89       -67.3455   27.7230  -75.8030 H         1 UNK         0.0847 
     90 H90       -67.6617   27.4212  -74.0942 H         1 UNK         0.0847 
     91 H91       -69.6357   26.4640  -75.1928 H         1 UNK         0.3141 
     92 H92       -71.1913   25.4007  -77.0282 H         1 UNK         0.0743 
     93 H93       -72.5630   25.8345  -74.3174 H         1 UNK         0.0784 
     94 H94       -72.6529   24.3270  -75.2209 H         1 UNK         0.0784 
     95 H95       -71.1068   24.9068  -74.6370 H         1 UNK         0.0784 
     96 H96       -73.8892   26.5176  -76.4359 H         1 UNK         0.3213 
     97 H97       -74.6548   27.4431  -79.4204 H         1 UNK         0.0855 
     98 H98       -75.2423   24.4410  -79.4837 H         1 UNK         0.0814 
     99 H99       -74.6264   25.4363  -80.7892 H         1 UNK         0.0814 
    100 H100      -76.2736   25.6639  -80.2268 H         1 UNK         0.0814 
    101 H101      -75.9462   25.7709  -77.2957 H         1 UNK         0.3105 
    102 H102      -76.9912   28.6759  -75.6150 H         1 UNK         0.0547 
    103 H103      -78.8722   28.6934  -77.2246 H         1 UNK         0.0837 
    104 H104      -78.9718   26.9407  -77.1722 H         1 UNK         0.0837 
    105 H105      -79.3361   27.8889  -75.7356 H         1 UNK         0.0837 
    106 H106      -77.8230   26.0685  -75.0666 H         1 UNK         0.3020 
    107 H107      -74.8895   25.1644  -73.1709 H         1 UNK         0.1245 
    108 H108      -77.0127   24.9675  -71.5905 H         1 UNK         0.0781 
    109 H109      -77.5738   26.3976  -72.4115 H         1 UNK         0.0781 
    110 H110      -76.0720   28.7275  -69.7671 H         1 UNK         0.0836 
    111 H111      -77.4784   27.7137  -69.9729 H         1 UNK         0.0836 
    112 H112      -77.4370   24.1980  -74.3803 H         1 UNK         0.3022 
    113 H113      -75.6961   21.3923  -75.6036 H         1 UNK         0.0747 
    114 H114      -77.5210   19.9954  -74.6615 H         1 UNK         0.0793 
    115 H115      -76.3960   20.4414  -73.3906 H         1 UNK         0.0793 
    116 H116      -77.9425   21.2687  -73.5143 H         1 UNK         0.0793 
    117 H117      -78.4245   22.0124  -75.8540 H         1 UNK         0.3047 
    118 H118      -78.3548   24.8317  -77.9257 H         1 UNK         0.0822 
    119 H119      -79.4714   23.4383  -79.6359 H         1 UNK         0.0807 
    120 H120      -78.8726   21.9644  -78.8724 H         1 UNK         0.0807 
    121 H121      -77.7510   23.0955  -79.6170 H         1 UNK         0.0807 
    122 H122      -80.5305   23.1776  -77.3949 H         1 UNK         0.2946 
    123 H123      -82.1466   23.9338  -75.9679 H         1 UNK         0.1144 
    124 H124      -82.4150   22.4726  -73.9444 H         1 UNK         0.0793 
    125 H125      -80.7098   22.6855  -73.5484 H         1 UNK         0.0793 
    126 H126      -81.1796   21.8299  -75.0110 H         1 UNK         0.0793 
    127 H127      -81.7498   24.9034  -73.2677 H         1 UNK         0.2896 
@<TRIPOS>BOND
     1    1    2 1    
     2    1   67 1    
     3    1   68 1    
     4    1   69 1    
     5    2    3 2    
     6    2    4 am   BACKBONE|DICT|INTERRES
     7    4    5 1    
     8    4   70 1    
     9    5    6 1    
    10    5   65 1    
    11    5   71 1    
    12    6    7 1    
    13    6   72 1    
    14    6   73 1    
    15    7    8 1    
    16    8    9 1    
    17    8   74 1    
    18    8   75 1    
    19    9   10 ar   
    20    9   14 ar   
    21   10   11 ar   
    22   10   76 1    
    23   11   12 ar   
    24   11   48 1    
    25   12   13 ar   
    26   12   77 1    
    27   13   14 ar   
    28   13   15 1    
    29   14   78 1    
    30   15   16 1    
    31   15   79 1    
    32   15   80 1    
    33   16   17 1    
    34   17   18 1    
    35   17   81 1    
    36   17   82 1    
    37   18   19 1    
    38   18   22 1    
    39   18   83 1    
    40   19   20 am   BACKBONE|DICT|INTERRES
    41   19   21 2    
    42   20   84 1    
    43   20   85 1    
    44   22   23 am   BACKBONE|DICT|INTERRES
    45   22   86 1    
    46   23   24 2    
    47   23   25 1    
    48   25   26 1    
    49   25   27 1    
    50   25   87 1    
    51   26   88 1    
    52   26   89 1    
    53   26   90 1    
    54   27   28 am   BACKBONE|DICT|INTERRES
    55   27   91 1    
    56   28   29 2    
    57   28   30 1    
    58   30   31 1    
    59   30   32 1    
    60   30   92 1    
    61   31   93 1    
    62   31   94 1    
    63   31   95 1    
    64   32   33 am   BACKBONE|DICT|INTERRES
    65   32   96 1    
    66   33   34 2    
    67   33   35 1    
    68   35   36 1    
    69   35   37 1    
    70   35   97 1    
    71   36   98 1    
    72   36   99 1    
    73   36  100 1    
    74   37   38 am   BACKBONE|DICT|INTERRES
    75   37  101 1    
    76   38   39 2    
    77   38   40 1    
    78   40   41 1    
    79   40   42 1    
    80   40  102 1    
    81   41  103 1    
    82   41  104 1    
    83   41  105 1    
    84   42   43 am   BACKBONE|DICT|INTERRES
    85   42  106 1    
    86   43   44 2    
    87   43   45 1    
    88   45   46 1    
    89   45   49 1    
    90   45  107 1    
    91   46   47 1    
    92   46  108 1    
    93   46  109 1    
    94   47   48 1    
    95   48  110 1    
    96   48  111 1    
    97   49   50 am   BACKBONE|DICT|INTERRES
    98   49  112 1    
    99   50   51 2    
   100   50   52 1    
   101   52   53 1    
   102   52   54 1    
   103   52  113 1    
   104   53  114 1    
   105   53  115 1    
   106   53  116 1    
   107   54   55 am   BACKBONE|DICT|INTERRES
   108   54  117 1    
   109   55   56 2    
   110   55   57 1    
   111   57   58 1    
   112   57   59 1    
   113   57  118 1    
   114   58  119 1    
   115   58  120 1    
   116   58  121 1    
   117   59   60 am   BACKBONE|DICT|INTERRES
   118   59  122 1    
   119   60   61 2    
   120   60   62 1    
   121   62   63 1    
   122   62   64 1    
   123   62  123 1    
   124   63  124 1    
   125   63  125 1    
   126   63  126 1    
   127   64   65 am   BACKBONE|DICT|INTERRES
   128   64  127 1    
   129   65   66 2    
@<TRIPOS>SUBSTRUCTURE
     1 UNK         1 GROUP             0       ****    0 ROOT    
