@<TRIPOS>MOLECULE
3R135
127   129    1
SMALL
USER_CHARGES


@<TRIPOS>ATOM
      1 CA        -81.6253   30.9695  -76.2545 C.3       0 UNK        -0.1998 
      2 C         -80.5943   29.8536  -76.3286 C.2       0 UNK         0.4909 
      3 O         -80.0218   29.6179  -77.3924 O.2       0 UNK        -0.5240 
      4 N         -80.3588   29.1595  -75.2076 N.am      1 UNK        -0.4739 
      5 CA        -79.3989   28.0540  -75.0949 C.3       1 UNK         0.0864 
      6 C6        -78.9667   27.8267  -73.6294 C.3       11 UNK        -0.0881 
      7 S7        -80.3268   27.3647  -72.4951 S.3       11 UNK        -0.2682 
      8 C8        -79.9349   28.3439  -71.0045 C.3       11 UNK         0.0289 
      9 C9        -78.4916   28.1787  -70.5375 C.ar      11 UNK        -0.0687 
     10 C10       -77.9351   26.9064  -70.3674 C.ar      11 UNK        -0.0823 
     11 C11       -76.5909   26.7605  -70.0098 C.ar      11 UNK        -0.0830 
     12 C12       -75.8202   27.8980  -69.7582 C.ar      11 UNK        -0.1021 
     13 C13       -76.3713   29.1744  -69.8938 C.ar      11 UNK        -0.0753 
     14 C14       -77.7047   29.3088  -70.2921 C.ar      11 UNK        -0.0933 
     15 C15       -75.5258   30.4046  -69.5959 C.3       11 UNK         0.0166 
     16 S16       -74.1062   30.5640  -70.7253 S.3       11 UNK        -0.2615 
     17 C17       -74.9218   30.9445  -72.3156 C.3       11 UNK        -0.0865 
     18 CA        -74.5935   29.9199  -73.4432 C.3       10 UNK         0.0862 
     19 C         -75.3659   30.2471  -74.7579 C.2       10 UNK         0.5551 
     20 N         -74.7447   30.1930  -75.9301 N.am      10 UNK        -0.7319 
     21 O         -76.5596   30.5329  -74.7159 O.2       10 UNK        -0.5018 
     22 N         -73.1483   29.6866  -73.6288 N.am      10 UNK        -0.4509 
     23 C         -72.2242   30.6052  -73.9454 C.2       10 UNK         0.4899 
     24 O         -72.4578   31.8071  -74.0751 O.2       10 UNK        -0.4839 
     25 CA        -70.7847   30.1049  -74.1720 C.3       9 UNK         0.0222 
     26 CB        -69.9420   30.3252  -72.9049 C.3       9 UNK        -0.1966 
     27 N         -70.6768   28.6997  -74.5838 N.am      9 UNK        -0.4218 
     28 C         -71.1846   28.1742  -75.7080 C.2       9 UNK         0.5020 
     29 O         -71.8382   28.8268  -76.5261 O.2       9 UNK        -0.5274 
     30 CA        -70.9055   26.6806  -75.9601 C.3       8 UNK         0.0270 
     31 CB        -70.8187   25.8483  -74.6632 C.3       8 UNK        -0.1976 
     32 N         -71.9657   26.1259  -76.7966 N.am      8 UNK        -0.4313 
     33 C         -71.8020   25.4520  -77.9418 C.2       8 UNK         0.5041 
     34 O         -70.6988   25.2005  -78.4304 O.2       8 UNK        -0.5577 
     35 CA        -73.0670   24.9431  -78.6672 C.3       7 UNK         0.0284 
     36 CB        -73.1243   23.4064  -78.6350 C.3       7 UNK        -0.1958 
     37 N         -74.3170   25.4683  -78.1123 N.am      7 UNK        -0.4454 
     38 C         -74.7618   26.7225  -78.2792 C.2       7 UNK         0.5089 
     39 O         -74.2269   27.5414  -79.0263 O.2       7 UNK        -0.5125 
     40 CA        -75.9989   27.1446  -77.4609 C.3       6 UNK         0.0408 
     41 CB        -77.2569   27.0371  -78.3386 C.3       6 UNK        -0.1791 
     42 N         -76.1887   26.3793  -76.2198 N.am      6 UNK        -0.4762 
     43 C         -75.2850   26.2380  -75.2340 C.2       6 UNK         0.5007 
     44 O         -74.2500   26.8992  -75.1684 O.2       6 UNK        -0.5032 
     45 CA        -75.5128   25.1234  -74.1887 C.3       5 UNK         0.0783 
     46 C46       -75.5929   25.6971  -72.7502 C.3       11 UNK        -0.0857 
     47 S47       -76.0808   24.4519  -71.4996 S.3       11 UNK        -0.2512 
     48 C48       -75.9525   25.3800  -69.9329 C.3       11 UNK         0.0225 
     49 N         -76.6188   24.2102  -74.5080 N.am      5 UNK        -0.4615 
     50 C         -76.6461   23.3531  -75.5388 C.2       4 UNK         0.5053 
     51 O         -75.8139   23.3534  -76.4472 O.2       4 UNK        -0.5105 
     52 CA        -77.7738   22.3123  -75.5452 C.3       4 UNK         0.0263 
     53 CB        -77.2264   21.0236  -74.8892 C.3       4 UNK        -0.1981 
     54 N         -78.9759   22.8602  -74.8914 N.am      4 UNK        -0.4224 
     55 C         -79.9706   22.2254  -74.2472 C.2       3 UNK         0.4895 
     56 O         -80.0270   21.0119  -74.0499 O.2       3 UNK        -0.5091 
     57 CA        -81.1288   23.1020  -73.7320 C.3       3 UNK         0.0250 
     58 CB        -80.8299   23.5935  -72.3057 C.3       3 UNK        -0.1996 
     59 N         -81.4131   24.2552  -74.5882 N.am      3 UNK        -0.4254 
     60 C         -81.8099   24.1914  -75.8683 C.2       2 UNK         0.5004 
     61 O         -82.0995   23.1406  -76.4413 O.2       2 UNK        -0.5226 
     62 CA        -81.8788   25.5135  -76.6571 C.3       2 UNK         0.0269 
     63 CB        -83.3407   25.9026  -76.9327 C.3       2 UNK        -0.1926 
     64 N         -81.1993   26.6513  -76.0262 N.am      2 UNK        -0.4687 
     65 C         -79.8916   26.7383  -75.7385 C.2       1 UNK         0.5165 
     66 O         -79.0919   25.8164  -75.9209 O.2       1 UNK        -0.5079 
     67 H67       -81.1637   31.9230  -76.5094 H         1 UNK         0.0900 
     68 H68       -82.0596   31.0586  -75.2589 H         1 UNK         0.0900 
     69 H69       -82.4330   30.7819  -76.9616 H         1 UNK         0.0900 
     70 H70       -80.8569   29.3886  -74.3585 H         1 UNK         0.2959 
     71 H71       -78.5019   28.3433  -75.6476 H         1 UNK         0.1079 
     72 H72       -78.4720   28.7276  -73.2625 H         1 UNK         0.0837 
     73 H73       -78.2168   27.0392  -73.5842 H         1 UNK         0.0837 
     74 H74       -80.1546   29.3917  -71.2151 H         1 UNK         0.0685 
     75 H75       -80.6048   28.0432  -70.1981 H         1 UNK         0.0685 
     76 H76       -78.5346   26.0278  -70.5634 H         1 UNK         0.1434 
     77 H77       -74.7822   27.7965  -69.4713 H         1 UNK         0.1329 
     78 H78       -78.1305   30.2957  -70.4116 H         1 UNK         0.1335 
     79 H79       -75.1524   30.3350  -68.5733 H         1 UNK         0.0680 
     80 H80       -76.1248   31.3157  -69.6408 H         1 UNK         0.0680 
     81 H81       -74.6287   31.9517  -72.6150 H         1 UNK         0.1032 
     82 H82       -76.0007   30.9912  -72.1583 H         1 UNK         0.1032 
     83 H83       -74.9922   28.9564  -73.1229 H         1 UNK         0.0461 
     84 H84       -73.7805   29.8919  -75.9852 H         1 UNK         0.3453 
     85 H85       -75.2537   30.4145  -76.7695 H         1 UNK         0.3453 
     86 H86       -72.8626   28.7194  -73.5933 H         1 UNK         0.2984 
     87 H87       -70.3566   30.7104  -74.9736 H         1 UNK         0.0554 
     88 H88       -68.8948   30.0725  -73.0718 H         1 UNK         0.0847 
     89 H89       -70.3060   29.7263  -72.0689 H         1 UNK         0.0847 
     90 H90       -69.9738   31.3701  -72.5922 H         1 UNK         0.0847 
     91 H91       -70.1562   28.0908  -73.9690 H         1 UNK         0.3141 
     92 H92       -69.9460   26.6239  -76.4778 H         1 UNK         0.0743 
     93 H93       -70.7101   24.7867  -74.8870 H         1 UNK         0.0784 
     94 H94       -69.9556   26.1290  -74.0591 H         1 UNK         0.0784 
     95 H95       -71.7125   25.9644  -74.0481 H         1 UNK         0.0784 
     96 H96       -72.9049   26.3686  -76.4943 H         1 UNK         0.3213 
     97 H97       -72.9921   25.2612  -79.7093 H         1 UNK         0.0855 
     98 H98       -73.1933   23.0279  -77.6142 H         1 UNK         0.0814 
     99 H99       -72.2315   22.9705  -79.0854 H         1 UNK         0.0814 
    100 H100      -73.9832   23.0289  -79.1901 H         1 UNK         0.0814 
    101 H101      -74.8419   24.8441  -77.5064 H         1 UNK         0.3105 
    102 H102      -75.8682   28.1904  -77.1900 H         1 UNK         0.0547 
    103 H103      -77.5429   25.9991  -78.5122 H         1 UNK         0.0837 
    104 H104      -78.1038   27.5517  -77.8894 H         1 UNK         0.0837 
    105 H105      -77.0979   27.4988  -79.3143 H         1 UNK         0.0837 
    106 H106      -77.0370   25.8255  -76.1649 H         1 UNK         0.3020 
    107 H107      -74.6077   24.5124  -74.2274 H         1 UNK         0.1245 
    108 H108      -74.6266   26.1139  -72.4594 H         1 UNK         0.0781 
    109 H109      -76.2952   26.5271  -72.7062 H         1 UNK         0.0781 
    110 H110      -76.4325   24.8063  -69.1390 H         1 UNK         0.0836 
    111 H111      -74.8981   25.4557  -69.6626 H         1 UNK         0.0836 
    112 H112      -77.3144   24.1083  -73.7836 H         1 UNK         0.3022 
    113 H113      -78.0270   22.1042  -76.5859 H         1 UNK         0.0747 
    114 H114      -77.8714   20.1673  -75.0839 H         1 UNK         0.0793 
    115 H115      -76.2454   20.7613  -75.2889 H         1 UNK         0.0793 
    116 H116      -77.1185   21.1324  -73.8093 H         1 UNK         0.0793 
    117 H117      -79.0987   23.8570  -75.0417 H         1 UNK         0.3047 
    118 H118      -82.0270   22.4814  -73.7033 H         1 UNK         0.0822 
    119 H119      -81.6641   24.1649  -71.8982 H         1 UNK         0.0807 
    120 H120      -79.9422   24.2267  -72.2724 H         1 UNK         0.0807 
    121 H121      -80.6549   22.7530  -71.6326 H         1 UNK         0.0807 
    122 H122      -81.2218   25.1682  -74.2004 H         1 UNK         0.2946 
    123 H123      -81.3846   25.3301  -77.6138 H         1 UNK         0.1144 
    124 H124      -83.4042   26.7796  -77.5772 H         1 UNK         0.0793 
    125 H125      -83.8798   26.1220  -76.0102 H         1 UNK         0.0793 
    126 H126      -83.8733   25.0949  -77.4371 H         1 UNK         0.0793 
    127 H127      -81.7716   27.4558  -75.8144 H         1 UNK         0.2896 
@<TRIPOS>BOND
     1    1    2 1    
     2    1   67 1    
     3    1   68 1    
     4    1   69 1    
     5    2    3 2    
     6    2    4 am   BACKBONE|DICT|INTERRES
     7    4    5 1    
     8    4   70 1    
     9    5    6 1    
    10    5   65 1    
    11    5   71 1    
    12    6    7 1    
    13    6   72 1    
    14    6   73 1    
    15    7    8 1    
    16    8    9 1    
    17    8   74 1    
    18    8   75 1    
    19    9   10 ar   
    20    9   14 ar   
    21   10   11 ar   
    22   10   76 1    
    23   11   12 ar   
    24   11   48 1    
    25   12   13 ar   
    26   12   77 1    
    27   13   14 ar   
    28   13   15 1    
    29   14   78 1    
    30   15   16 1    
    31   15   79 1    
    32   15   80 1    
    33   16   17 1    
    34   17   18 1    
    35   17   81 1    
    36   17   82 1    
    37   18   19 1    
    38   18   22 1    
    39   18   83 1    
    40   19   20 am   BACKBONE|DICT|INTERRES
    41   19   21 2    
    42   20   84 1    
    43   20   85 1    
    44   22   23 am   BACKBONE|DICT|INTERRES
    45   22   86 1    
    46   23   24 2    
    47   23   25 1    
    48   25   26 1    
    49   25   27 1    
    50   25   87 1    
    51   26   88 1    
    52   26   89 1    
    53   26   90 1    
    54   27   28 am   BACKBONE|DICT|INTERRES
    55   27   91 1    
    56   28   29 2    
    57   28   30 1    
    58   30   31 1    
    59   30   32 1    
    60   30   92 1    
    61   31   93 1    
    62   31   94 1    
    63   31   95 1    
    64   32   33 am   BACKBONE|DICT|INTERRES
    65   32   96 1    
    66   33   34 2    
    67   33   35 1    
    68   35   36 1    
    69   35   37 1    
    70   35   97 1    
    71   36   98 1    
    72   36   99 1    
    73   36  100 1    
    74   37   38 am   BACKBONE|DICT|INTERRES
    75   37  101 1    
    76   38   39 2    
    77   38   40 1    
    78   40   41 1    
    79   40   42 1    
    80   40  102 1    
    81   41  103 1    
    82   41  104 1    
    83   41  105 1    
    84   42   43 am   BACKBONE|DICT|INTERRES
    85   42  106 1    
    86   43   44 2    
    87   43   45 1    
    88   45   46 1    
    89   45   49 1    
    90   45  107 1    
    91   46   47 1    
    92   46  108 1    
    93   46  109 1    
    94   47   48 1    
    95   48  110 1    
    96   48  111 1    
    97   49   50 am   BACKBONE|DICT|INTERRES
    98   49  112 1    
    99   50   51 2    
   100   50   52 1    
   101   52   53 1    
   102   52   54 1    
   103   52  113 1    
   104   53  114 1    
   105   53  115 1    
   106   53  116 1    
   107   54   55 am   BACKBONE|DICT|INTERRES
   108   54  117 1    
   109   55   56 2    
   110   55   57 1    
   111   57   58 1    
   112   57   59 1    
   113   57  118 1    
   114   58  119 1    
   115   58  120 1    
   116   58  121 1    
   117   59   60 am   BACKBONE|DICT|INTERRES
   118   59  122 1    
   119   60   61 2    
   120   60   62 1    
   121   62   63 1    
   122   62   64 1    
   123   62  123 1    
   124   63  124 1    
   125   63  125 1    
   126   63  126 1    
   127   64   65 am   BACKBONE|DICT|INTERRES
   128   64  127 1    
   129   65   66 2    
@<TRIPOS>SUBSTRUCTURE
     1 UNK         1 GROUP             0       ****    0 ROOT    
