@<TRIPOS>MOLECULE
3R135
127   129    1
SMALL
USER_CHARGES


@<TRIPOS>ATOM
      1 CA        -77.7833   29.1572  -74.7224 C.3       0 UNK        -0.1998 
      2 C         -78.8547   30.2248  -74.5298 C.2       0 UNK         0.4909 
      3 O         -78.6181   31.3863  -74.8568 O.2       0 UNK        -0.5240 
      4 N         -80.0394   29.8913  -74.0017 N.am      1 UNK        -0.4739 
      5 CA        -80.5075   28.5464  -73.6378 C.3       1 UNK         0.0864 
      6 C6        -81.7275   28.5977  -72.6749 C.3       11 UNK        -0.0881 
      7 S7        -81.5953   29.8368  -71.3350 S.3       11 UNK        -0.2682 
      8 C8        -80.9789   28.8631  -69.9253 C.3       11 UNK         0.0289 
      9 C9        -79.5039   28.5076  -70.0581 C.ar      11 UNK        -0.0687 
     10 C10       -79.1019   27.1685  -70.0438 C.ar      11 UNK        -0.0823 
     11 C11       -77.7487   26.8334  -70.1500 C.ar      11 UNK        -0.0830 
     12 C12       -76.7942   27.8484  -70.2551 C.ar      11 UNK        -0.1021 
     13 C13       -77.1817   29.1897  -70.2723 C.ar      11 UNK        -0.0753 
     14 C14       -78.5375   29.5151  -70.1686 C.ar      11 UNK        -0.0933 
     15 C15       -76.1243   30.2738  -70.4064 C.3       11 UNK         0.0166 
     16 S16       -75.6367   30.4916  -72.1445 S.3       11 UNK        -0.2615 
     17 C17       -73.9960   31.2654  -71.9477 C.3       11 UNK        -0.0865 
     18 CA        -73.4703   31.9356  -73.2550 C.3       10 UNK         0.0862 
     19 C         -72.1098   32.6782  -73.0694 C.2       10 UNK         0.5551 
     20 N         -71.9025   33.3594  -71.9496 N.am      10 UNK        -0.7319 
     21 O         -71.2519   32.6916  -73.9510 O.2       10 UNK        -0.5018 
     22 N         -73.4818   31.0311  -74.4201 N.am      10 UNK        -0.4509 
     23 C         -72.7815   29.8975  -74.5598 C.2       10 UNK         0.4899 
     24 O         -72.0443   29.4279  -73.6901 O.2       10 UNK        -0.4839 
     25 CA        -72.9571   29.1894  -75.9156 C.3       9 UNK         0.0222 
     26 CB        -72.1358   29.8694  -77.0301 C.3       9 UNK        -0.1966 
     27 N         -72.7075   27.7455  -75.8492 N.am      9 UNK        -0.4218 
     28 C         -71.5479   27.0789  -75.7425 C.2       9 UNK         0.5020 
     29 O         -70.4310   27.5992  -75.7436 O.2       9 UNK        -0.5274 
     30 CA        -71.6562   25.5459  -75.6332 C.3       8 UNK         0.0270 
     31 CB        -71.9601   25.1258  -74.1856 C.3       8 UNK        -0.1976 
     32 N         -72.6668   24.9781  -76.5318 N.am      8 UNK        -0.4313 
     33 C         -72.5651   24.9506  -77.8695 C.2       8 UNK         0.5041 
     34 O         -71.5679   25.3225  -78.4896 O.2       8 UNK        -0.5577 
     35 CA        -73.7892   24.4422  -78.6534 C.3       7 UNK         0.0284 
     36 CB        -73.8340   22.9060  -78.6735 C.3       7 UNK        -0.1958 
     37 N         -75.0484   24.9717  -78.1247 N.am      7 UNK        -0.4454 
     38 C         -75.4006   26.2653  -78.1624 C.2       7 UNK         0.5089 
     39 O         -74.7541   27.1386  -78.7404 O.2       7 UNK        -0.5125 
     40 CA        -76.6678   26.6625  -77.3892 C.3       6 UNK         0.0408 
     41 CB        -77.9196   26.5576  -78.2734 C.3       6 UNK        -0.1791 
     42 N         -76.8473   25.8673  -76.1722 N.am      6 UNK        -0.4762 
     43 C         -76.0910   25.9943  -75.0717 C.2       6 UNK         0.5007 
     44 O         -75.1932   26.8244  -74.9550 O.2       6 UNK        -0.5032 
     45 CA        -76.3717   25.0186  -73.9160 C.3       5 UNK         0.0783 
     46 C46       -77.5031   25.5834  -73.0319 C.3       11 UNK        -0.0857 
     47 S47       -77.9735   24.4929  -71.6444 S.3       11 UNK        -0.2512 
     48 C48       -77.3113   25.3755  -70.1926 C.3       11 UNK         0.0225 
     49 N         -76.6528   23.6725  -74.4177 N.am      5 UNK        -0.4615 
     50 C         -75.7380   22.8912  -75.0077 C.2       4 UNK         0.5053 
     51 O         -74.5613   23.2196  -75.1586 O.2       4 UNK        -0.5105 
     52 CA        -76.2180   21.5418  -75.5689 C.3       4 UNK         0.0263 
     53 CB        -76.0650   20.4383  -74.5109 C.3       4 UNK        -0.1981 
     54 N         -77.6008   21.5648  -76.0538 N.am      4 UNK        -0.4224 
     55 C         -78.0659   22.3635  -77.0249 C.2       3 UNK         0.4895 
     56 O         -77.3621   23.1656  -77.6412 O.2       3 UNK        -0.5091 
     57 CA        -79.5712   22.2883  -77.3471 C.3       3 UNK         0.0250 
     58 CB        -80.3196   21.1480  -76.6179 C.3       3 UNK        -0.1996 
     59 N         -80.2535   23.5681  -77.1127 N.am      3 UNK        -0.4254 
     60 C         -80.2767   24.2744  -75.9723 C.2       2 UNK         0.5004 
     61 O         -79.6660   23.9604  -74.9481 O.2       2 UNK        -0.5226 
     62 CA        -81.1527   25.5329  -75.9769 C.3       2 UNK         0.0269 
     63 CB        -82.6426   25.1610  -75.8599 C.3       2 UNK        -0.1926 
     64 N         -80.7872   26.4178  -74.8674 N.am      2 UNK        -0.4687 
     65 C         -80.8790   27.7525  -74.9130 C.2       1 UNK         0.5165 
     66 O         -81.2738   28.3619  -75.9108 O.2       1 UNK        -0.5079 
     67 H67       -78.1235   28.3847  -75.4087 H         1 UNK         0.0900 
     68 H68       -76.8744   29.5937  -75.1365 H         1 UNK         0.0900 
     69 H69       -77.5192   28.6990  -73.7704 H         1 UNK         0.0900 
     70 H70       -80.7296   30.6181  -73.8810 H         1 UNK         0.2959 
     71 H71       -79.6974   28.0276  -73.1220 H         1 UNK         0.1079 
     72 H72       -81.9066   27.6132  -72.2387 H         1 UNK         0.0837 
     73 H73       -82.6371   28.8452  -73.2269 H         1 UNK         0.0837 
     74 H74       -81.5944   27.9701  -69.8061 H         1 UNK         0.0685 
     75 H75       -81.1124   29.4488  -69.0149 H         1 UNK         0.0685 
     76 H76       -79.8400   26.3819  -69.9635 H         1 UNK         0.1434 
     77 H77       -75.7460   27.5976  -70.3474 H         1 UNK         0.1329 
     78 H78       -78.8441   30.5522  -70.1814 H         1 UNK         0.1335 
     79 H79       -75.2514   30.0027  -69.8102 H         1 UNK         0.0680 
     80 H80       -76.4889   31.2229  -70.0105 H         1 UNK         0.0680 
     81 H81       -73.2936   30.5092  -71.5933 H         1 UNK         0.1032 
     82 H82       -74.0780   32.0026  -71.1481 H         1 UNK         0.1032 
     83 H83       -74.1766   32.7246  -73.5160 H         1 UNK         0.0461 
     84 H84       -71.0318   33.8552  -71.8376 H         1 UNK         0.3453 
     85 H85       -72.5972   33.4034  -71.2216 H         1 UNK         0.3453 
     86 H86       -74.0419   31.3469  -75.1981 H         1 UNK         0.2984 
     87 H87       -74.0112   29.2730  -76.1862 H         1 UNK         0.0554 
     88 H88       -72.4616   30.8988  -77.1828 H         1 UNK         0.0847 
     89 H89       -72.2511   29.3485  -77.9809 H         1 UNK         0.0847 
     90 H90       -71.0728   29.9042  -76.7904 H         1 UNK         0.0847 
     91 H91       -73.5585   27.2014  -75.7255 H         1 UNK         0.3141 
     92 H92       -70.6878   25.1240  -75.9108 H         1 UNK         0.0743 
     93 H93       -71.2060   25.5157  -73.5005 H         1 UNK         0.0784 
     94 H94       -72.9285   25.4991  -73.8509 H         1 UNK         0.0784 
     95 H95       -71.9656   24.0407  -74.0802 H         1 UNK         0.0784 
     96 H96       -73.4864   24.5634  -76.0965 H         1 UNK         0.3213 
     97 H97       -73.6919   24.7903  -79.6841 H         1 UNK         0.0855 
     98 H98       -73.8805   22.4874  -77.6688 H         1 UNK         0.0814 
     99 H99       -72.9417   22.4997  -79.1515 H         1 UNK         0.0814 
    100 H100      -74.6967   22.5396  -79.2305 H         1 UNK         0.0814 
    101 H101      -75.6928   24.3118  -77.7005 H         1 UNK         0.3105 
    102 H102      -76.5512   27.7089  -77.1002 H         1 UNK         0.0547 
    103 H103      -77.8036   27.1514  -79.1811 H         1 UNK         0.0837 
    104 H104      -78.8013   26.9334  -77.7551 H         1 UNK         0.0837 
    105 H105      -78.1183   25.5311  -78.5817 H         1 UNK         0.0837 
    106 H106      -77.5155   25.1094  -76.2125 H         1 UNK         0.3020 
    107 H107      -75.4646   24.9645  -73.3092 H         1 UNK         0.1245 
    108 H108      -78.4002   25.7578  -73.6226 H         1 UNK         0.0781 
    109 H109      -77.2108   26.5639  -72.6595 H         1 UNK         0.0781 
    110 H110      -76.2231   25.2949  -70.2011 H         1 UNK         0.0836 
    111 H111      -77.6486   24.8719  -69.2857 H         1 UNK         0.0836 
    112 H112      -77.6171   23.3656  -74.3589 H         1 UNK         0.3022 
    113 H113      -75.5784   21.2926  -76.4174 H         1 UNK         0.0747 
    114 H114      -76.3155   19.4587  -74.9185 H         1 UNK         0.0793 
    115 H115      -75.0364   20.3838  -74.1510 H         1 UNK         0.0793 
    116 H116      -76.7041   20.6170  -73.6450 H         1 UNK         0.0793 
    117 H117      -78.2560   20.9549  -75.5866 H         1 UNK         0.3047 
    118 H118      -79.6362   22.0927  -78.4185 H         1 UNK         0.0822 
    119 H119      -81.3585   21.0963  -76.9441 H         1 UNK         0.0807 
    120 H120      -80.3265   21.2824  -75.5353 H         1 UNK         0.0807 
    121 H121      -79.8741   20.1761  -76.8349 H         1 UNK         0.0807 
    122 H122      -80.7682   23.9270  -77.9049 H         1 UNK         0.2946 
    123 H123      -80.9847   26.0452  -76.9272 H         1 UNK         0.1144 
    124 H124      -82.8543   24.6437  -74.9232 H         1 UNK         0.0793 
    125 H125      -82.9539   24.5042  -76.6732 H         1 UNK         0.0793 
    126 H126      -83.2771   26.0465  -75.9029 H         1 UNK         0.0793 
    127 H127      -80.4334   25.9423  -74.0469 H         1 UNK         0.2896 
@<TRIPOS>BOND
     1    1    2 1    
     2    1   67 1    
     3    1   68 1    
     4    1   69 1    
     5    2    3 2    
     6    2    4 am   BACKBONE|DICT|INTERRES
     7    4    5 1    
     8    4   70 1    
     9    5    6 1    
    10    5   65 1    
    11    5   71 1    
    12    6    7 1    
    13    6   72 1    
    14    6   73 1    
    15    7    8 1    
    16    8    9 1    
    17    8   74 1    
    18    8   75 1    
    19    9   10 ar   
    20    9   14 ar   
    21   10   11 ar   
    22   10   76 1    
    23   11   12 ar   
    24   11   48 1    
    25   12   13 ar   
    26   12   77 1    
    27   13   14 ar   
    28   13   15 1    
    29   14   78 1    
    30   15   16 1    
    31   15   79 1    
    32   15   80 1    
    33   16   17 1    
    34   17   18 1    
    35   17   81 1    
    36   17   82 1    
    37   18   19 1    
    38   18   22 1    
    39   18   83 1    
    40   19   20 am   BACKBONE|DICT|INTERRES
    41   19   21 2    
    42   20   84 1    
    43   20   85 1    
    44   22   23 am   BACKBONE|DICT|INTERRES
    45   22   86 1    
    46   23   24 2    
    47   23   25 1    
    48   25   26 1    
    49   25   27 1    
    50   25   87 1    
    51   26   88 1    
    52   26   89 1    
    53   26   90 1    
    54   27   28 am   BACKBONE|DICT|INTERRES
    55   27   91 1    
    56   28   29 2    
    57   28   30 1    
    58   30   31 1    
    59   30   32 1    
    60   30   92 1    
    61   31   93 1    
    62   31   94 1    
    63   31   95 1    
    64   32   33 am   BACKBONE|DICT|INTERRES
    65   32   96 1    
    66   33   34 2    
    67   33   35 1    
    68   35   36 1    
    69   35   37 1    
    70   35   97 1    
    71   36   98 1    
    72   36   99 1    
    73   36  100 1    
    74   37   38 am   BACKBONE|DICT|INTERRES
    75   37  101 1    
    76   38   39 2    
    77   38   40 1    
    78   40   41 1    
    79   40   42 1    
    80   40  102 1    
    81   41  103 1    
    82   41  104 1    
    83   41  105 1    
    84   42   43 am   BACKBONE|DICT|INTERRES
    85   42  106 1    
    86   43   44 2    
    87   43   45 1    
    88   45   46 1    
    89   45   49 1    
    90   45  107 1    
    91   46   47 1    
    92   46  108 1    
    93   46  109 1    
    94   47   48 1    
    95   48  110 1    
    96   48  111 1    
    97   49   50 am   BACKBONE|DICT|INTERRES
    98   49  112 1    
    99   50   51 2    
   100   50   52 1    
   101   52   53 1    
   102   52   54 1    
   103   52  113 1    
   104   53  114 1    
   105   53  115 1    
   106   53  116 1    
   107   54   55 am   BACKBONE|DICT|INTERRES
   108   54  117 1    
   109   55   56 2    
   110   55   57 1    
   111   57   58 1    
   112   57   59 1    
   113   57  118 1    
   114   58  119 1    
   115   58  120 1    
   116   58  121 1    
   117   59   60 am   BACKBONE|DICT|INTERRES
   118   59  122 1    
   119   60   61 2    
   120   60   62 1    
   121   62   63 1    
   122   62   64 1    
   123   62  123 1    
   124   63  124 1    
   125   63  125 1    
   126   63  126 1    
   127   64   65 am   BACKBONE|DICT|INTERRES
   128   64  127 1    
   129   65   66 2    
@<TRIPOS>SUBSTRUCTURE
     1 UNK         1 GROUP             0       ****    0 ROOT    
