@<TRIPOS>MOLECULE
3R135
127   129    1
SMALL
USER_CHARGES


@<TRIPOS>ATOM
      1 CA        -83.2346   29.4240  -79.0145 C.3       0 UNK        -0.1998 
      2 C         -82.2136   28.7146  -78.1375 C.2       0 UNK         0.4909 
      3 O         -81.6267   27.7193  -78.5640 O.2       0 UNK        -0.5240 
      4 N         -81.9913   29.2227  -76.9184 N.am      1 UNK        -0.4739 
      5 CA        -81.0937   28.6284  -75.9231 C.3       1 UNK         0.0864 
      6 C6        -80.6930   29.6631  -74.8426 C.3       11 UNK        -0.0881 
      7 S7        -79.0401   29.3199  -74.1601 S.3       11 UNK        -0.2682 
      8 C8        -79.4462   28.8330  -72.4579 C.3       11 UNK         0.0289 
      9 C9        -78.1817   28.4429  -71.7134 C.ar      11 UNK        -0.0687 
     10 C10       -77.7706   27.1082  -71.6758 C.ar      11 UNK        -0.0823 
     11 C11       -76.5826   26.7495  -71.0326 C.ar      11 UNK        -0.0830 
     12 C12       -75.8070   27.7378  -70.4192 C.ar      11 UNK        -0.1021 
     13 C13       -76.1994   29.0791  -70.4669 C.ar      11 UNK        -0.0753 
     14 C14       -77.3981   29.4231  -71.0985 C.ar      11 UNK        -0.0933 
     15 C15       -75.3061   30.1609  -69.8754 C.3       11 UNK         0.0166 
     16 S16       -74.6431   31.2764  -71.1582 S.3       11 UNK        -0.2615 
     17 C17       -73.7056   30.1259  -72.2248 C.3       11 UNK        -0.0865 
     18 CA        -72.1723   30.3225  -72.1359 C.3       10 UNK         0.0862 
     19 C         -71.5905   29.7585  -70.8093 C.2       10 UNK         0.5551 
     20 N         -71.3569   30.6089  -69.8194 N.am      10 UNK        -0.7319 
     21 O         -71.3819   28.5558  -70.6622 O.2       10 UNK        -0.5018 
     22 N         -71.5282   29.7320  -73.3136 N.am      10 UNK        -0.4509 
     23 C         -70.2545   29.8944  -73.6801 C.2       10 UNK         0.4899 
     24 O         -69.4728   30.6577  -73.1122 O.2       10 UNK        -0.4839 
     25 CA        -69.7564   29.0811  -74.8923 C.3       9 UNK         0.0222 
     26 CB        -69.2463   27.6977  -74.4430 C.3       9 UNK        -0.1966 
     27 N         -70.7006   28.9600  -76.0183 N.am      9 UNK        -0.4218 
     28 C         -71.8898   28.3414  -76.0629 C.2       9 UNK         0.5020 
     29 O         -72.4176   27.7849  -75.0965 O.2       9 UNK        -0.5274 
     30 CA        -72.5946   28.3287  -77.4270 C.3       8 UNK         0.0270 
     31 CB        -72.1141   27.1351  -78.2688 C.3       8 UNK        -0.1976 
     32 N         -74.0431   28.2345  -77.2443 N.am      8 UNK        -0.4313 
     33 C         -74.8566   29.2909  -77.1035 C.2       8 UNK         0.5041 
     34 O         -74.4623   30.4555  -77.1916 O.2       8 UNK        -0.5577 
     35 CA        -76.3464   29.0338  -76.7842 C.3       7 UNK         0.0284 
     36 CB        -77.2847   29.9833  -77.5602 C.3       7 UNK        -0.1958 
     37 N         -76.7754   27.6363  -76.9251 N.am      7 UNK        -0.4454 
     38 C         -76.8309   26.8919  -78.0410 C.2       7 UNK         0.5089 
     39 O         -76.5834   27.3181  -79.1695 O.2       7 UNK        -0.5125 
     40 CA        -77.1920   25.4039  -77.8374 C.3       6 UNK         0.0408 
     41 CB        -76.7048   24.5055  -78.9929 C.3       6 UNK        -0.1791 
     42 N         -76.7418   24.8721  -76.5416 N.am      6 UNK        -0.4762 
     43 C         -75.4808   24.8343  -76.0774 C.2       6 UNK         0.5007 
     44 O         -74.5140   25.2307  -76.7272 O.2       6 UNK        -0.5032 
     45 CA        -75.2507   24.3302  -74.6414 C.3       5 UNK         0.0783 
     46 C46       -75.1336   25.5375  -73.6797 C.3       11 UNK        -0.0857 
     47 S47       -74.5983   25.0621  -72.0007 S.3       11 UNK        -0.2512 
     48 C48       -76.1216   25.2985  -71.0293 C.3       11 UNK         0.0225 
     49 N         -76.2953   23.3838  -74.2278 N.am      5 UNK        -0.4615 
     50 C         -76.0554   22.1443  -73.7765 C.2       4 UNK         0.5053 
     51 O         -74.9283   21.6654  -73.6454 O.2       4 UNK        -0.5105 
     52 CA        -77.2740   21.2759  -73.4080 C.3       4 UNK         0.0263 
     53 CB        -77.6046   21.4189  -71.9134 C.3       4 UNK        -0.1981 
     54 N         -78.4695   21.5799  -74.1965 N.am      4 UNK        -0.4224 
     55 C         -78.5799   21.4044  -75.5204 C.2       3 UNK         0.4895 
     56 O         -77.7155   20.8651  -76.2119 O.2       3 UNK        -0.5091 
     57 CA        -79.8572   21.9297  -76.2032 C.3       3 UNK         0.0250 
     58 CB        -80.7801   20.7582  -76.5787 C.3       3 UNK        -0.1996 
     59 N         -80.6354   22.9257  -75.4511 N.am      3 UNK        -0.4254 
     60 C         -80.1895   24.1110  -75.0140 C.2       2 UNK         0.5004 
     61 O         -79.0036   24.4559  -75.0293 O.2       2 UNK        -0.5226 
     62 CA        -81.2355   25.0757  -74.4530 C.3       2 UNK         0.0269 
     63 CB        -81.2808   25.0172  -72.9174 C.3       2 UNK        -0.1926 
     64 N         -80.8628   26.4150  -74.8968 N.am      2 UNK        -0.4687 
     65 C         -81.7172   27.3575  -75.3058 C.2       1 UNK         0.5165 
     66 O         -82.9434   27.2572  -75.2058 O.2       1 UNK        -0.5079 
     67 H67       -82.7662   29.7594  -79.9394 H         1 UNK         0.0900 
     68 H68       -83.6651   30.2935  -78.5179 H         1 UNK         0.0900 
     69 H69       -84.0461   28.7433  -79.2703 H         1 UNK         0.0900 
     70 H70       -82.5291   30.0191  -76.6074 H         1 UNK         0.2959 
     71 H71       -80.1932   28.3246  -76.4629 H         1 UNK         0.1079 
     72 H72       -80.6349   30.6605  -75.2819 H         1 UNK         0.0837 
     73 H73       -81.4394   29.7353  -74.0487 H         1 UNK         0.0837 
     74 H74       -79.9422   29.6606  -71.9482 H         1 UNK         0.0685 
     75 H75       -80.1535   28.0023  -72.4695 H         1 UNK         0.0685 
     76 H76       -78.3618   26.3527  -72.1723 H         1 UNK         0.1434 
     77 H77       -74.8767   27.4635  -69.9401 H         1 UNK         0.1329 
     78 H78       -77.6990   30.4608  -71.1478 H         1 UNK         0.1335 
     79 H79       -75.8806   30.7475  -69.1573 H         1 UNK         0.0680 
     80 H80       -74.4747   29.7223  -69.3211 H         1 UNK         0.0680 
     81 H81       -74.0429   30.3152  -73.2454 H         1 UNK         0.1032 
     82 H82       -73.9725   29.0875  -72.0239 H         1 UNK         0.1032 
     83 H83       -71.9641   31.3938  -72.1766 H         1 UNK         0.0461 
     84 H84       -70.9893   30.2609  -68.9479 H         1 UNK         0.3453 
     85 H85       -71.5466   31.5932  -69.9272 H         1 UNK         0.3453 
     86 H86       -72.0591   29.0272  -73.8209 H         1 UNK         0.2984 
     87 H87       -68.9000   29.6251  -75.2941 H         1 UNK         0.0554 
     88 H88       -68.8089   27.1457  -75.2748 H         1 UNK         0.0847 
     89 H89       -70.0435   27.0872  -74.0174 H         1 UNK         0.0847 
     90 H90       -68.4744   27.7972  -73.6786 H         1 UNK         0.0847 
     91 H91       -70.3882   29.4077  -76.8695 H         1 UNK         0.3141 
     92 H92       -72.3521   29.2483  -77.9641 H         1 UNK         0.0743 
     93 H93       -72.2618   26.1873  -77.7498 H         1 UNK         0.0784 
     94 H94       -72.6437   27.0814  -79.2203 H         1 UNK         0.0784 
     95 H95       -71.0501   27.2180  -78.4937 H         1 UNK         0.0784 
     96 H96       -74.4090   27.2998  -77.0984 H         1 UNK         0.3213 
     97 H97       -76.4536   29.2680  -75.7241 H         1 UNK         0.0855 
     98 H98       -77.0677   31.0258  -77.3247 H         1 UNK         0.0814 
     99 H99       -78.3292   29.8089  -77.3037 H         1 UNK         0.0814 
    100 H100      -77.1788   29.8672  -78.6390 H         1 UNK         0.0814 
    101 H101      -76.9919   27.1657  -76.0582 H         1 UNK         0.3105 
    102 H102      -78.2820   25.3574  -77.8209 H         1 UNK         0.0547 
    103 H103      -77.1503   24.8104  -79.9405 H         1 UNK         0.0837 
    104 H104      -75.6221   24.5525  -79.1136 H         1 UNK         0.0837 
    105 H105      -76.9795   23.4638  -78.8273 H         1 UNK         0.0837 
    106 H106      -77.5008   24.5845  -75.9256 H         1 UNK         0.3020 
    107 H107      -74.2809   23.8276  -74.6636 H         1 UNK         0.1245 
    108 H108      -76.0764   26.0831  -73.6384 H         1 UNK         0.0781 
    109 H109      -74.3947   26.2508  -74.0503 H         1 UNK         0.0781 
    110 H110      -75.9399   24.9817  -70.0014 H         1 UNK         0.0836 
    111 H111      -76.8981   24.6405  -71.4210 H         1 UNK         0.0836 
    112 H112      -77.2564   23.6913  -74.3218 H         1 UNK         0.3022 
    113 H113      -77.0031   20.2355  -73.6004 H         1 UNK         0.0747 
    114 H114      -78.3865   20.7216  -71.6121 H         1 UNK         0.0793 
    115 H115      -76.7293   21.2073  -71.2974 H         1 UNK         0.0793 
    116 H116      -77.9407   22.4266  -71.6675 H         1 UNK         0.0793 
    117 H117      -79.2355   22.0252  -73.7133 H         1 UNK         0.3047 
    118 H118      -79.5332   22.4145  -77.1267 H         1 UNK         0.0822 
    119 H119      -81.6267   21.0938  -77.1781 H         1 UNK         0.0807 
    120 H120      -81.1717   20.2543  -75.6940 H         1 UNK         0.0807 
    121 H121      -80.2470   20.0114  -77.1693 H         1 UNK         0.0807 
    122 H122      -81.6209   22.7248  -75.3565 H         1 UNK         0.2946 
    123 H123      -82.2158   24.8098  -74.8562 H         1 UNK         0.1144 
    124 H124      -81.6046   24.0338  -72.5744 H         1 UNK         0.0793 
    125 H125      -81.9826   25.7476  -72.5144 H         1 UNK         0.0793 
    126 H126      -80.3052   25.2107  -72.4737 H         1 UNK         0.0793 
    127 H127      -79.8676   26.5504  -75.0193 H         1 UNK         0.2896 
@<TRIPOS>BOND
     1    1    2 1    
     2    1   67 1    
     3    1   68 1    
     4    1   69 1    
     5    2    3 2    
     6    2    4 am   BACKBONE|DICT|INTERRES
     7    4    5 1    
     8    4   70 1    
     9    5    6 1    
    10    5   65 1    
    11    5   71 1    
    12    6    7 1    
    13    6   72 1    
    14    6   73 1    
    15    7    8 1    
    16    8    9 1    
    17    8   74 1    
    18    8   75 1    
    19    9   10 ar   
    20    9   14 ar   
    21   10   11 ar   
    22   10   76 1    
    23   11   12 ar   
    24   11   48 1    
    25   12   13 ar   
    26   12   77 1    
    27   13   14 ar   
    28   13   15 1    
    29   14   78 1    
    30   15   16 1    
    31   15   79 1    
    32   15   80 1    
    33   16   17 1    
    34   17   18 1    
    35   17   81 1    
    36   17   82 1    
    37   18   19 1    
    38   18   22 1    
    39   18   83 1    
    40   19   20 am   BACKBONE|DICT|INTERRES
    41   19   21 2    
    42   20   84 1    
    43   20   85 1    
    44   22   23 am   BACKBONE|DICT|INTERRES
    45   22   86 1    
    46   23   24 2    
    47   23   25 1    
    48   25   26 1    
    49   25   27 1    
    50   25   87 1    
    51   26   88 1    
    52   26   89 1    
    53   26   90 1    
    54   27   28 am   BACKBONE|DICT|INTERRES
    55   27   91 1    
    56   28   29 2    
    57   28   30 1    
    58   30   31 1    
    59   30   32 1    
    60   30   92 1    
    61   31   93 1    
    62   31   94 1    
    63   31   95 1    
    64   32   33 am   BACKBONE|DICT|INTERRES
    65   32   96 1    
    66   33   34 2    
    67   33   35 1    
    68   35   36 1    
    69   35   37 1    
    70   35   97 1    
    71   36   98 1    
    72   36   99 1    
    73   36  100 1    
    74   37   38 am   BACKBONE|DICT|INTERRES
    75   37  101 1    
    76   38   39 2    
    77   38   40 1    
    78   40   41 1    
    79   40   42 1    
    80   40  102 1    
    81   41  103 1    
    82   41  104 1    
    83   41  105 1    
    84   42   43 am   BACKBONE|DICT|INTERRES
    85   42  106 1    
    86   43   44 2    
    87   43   45 1    
    88   45   46 1    
    89   45   49 1    
    90   45  107 1    
    91   46   47 1    
    92   46  108 1    
    93   46  109 1    
    94   47   48 1    
    95   48  110 1    
    96   48  111 1    
    97   49   50 am   BACKBONE|DICT|INTERRES
    98   49  112 1    
    99   50   51 2    
   100   50   52 1    
   101   52   53 1    
   102   52   54 1    
   103   52  113 1    
   104   53  114 1    
   105   53  115 1    
   106   53  116 1    
   107   54   55 am   BACKBONE|DICT|INTERRES
   108   54  117 1    
   109   55   56 2    
   110   55   57 1    
   111   57   58 1    
   112   57   59 1    
   113   57  118 1    
   114   58  119 1    
   115   58  120 1    
   116   58  121 1    
   117   59   60 am   BACKBONE|DICT|INTERRES
   118   59  122 1    
   119   60   61 2    
   120   60   62 1    
   121   62   63 1    
   122   62   64 1    
   123   62  123 1    
   124   63  124 1    
   125   63  125 1    
   126   63  126 1    
   127   64   65 am   BACKBONE|DICT|INTERRES
   128   64  127 1    
   129   65   66 2    
@<TRIPOS>SUBSTRUCTURE
     1 UNK         1 GROUP             0       ****    0 ROOT    
