@<TRIPOS>MOLECULE
3R135
127   129    1
SMALL
USER_CHARGES


@<TRIPOS>ATOM
      1 CA        -82.3769   24.8431  -71.6253 C.3       0 UNK        -0.1998 
      2 C         -82.5817   26.2504  -72.1637 C.2       0 UNK         0.4909 
      3 O         -83.3738   27.0117  -71.6091 O.2       0 UNK        -0.5240 
      4 N         -81.8742   26.5965  -73.2439 N.am      1 UNK        -0.4739 
      5 CA        -81.8986   27.9095  -73.9013 C.3       1 UNK         0.0864 
      6 C6        -80.4430   28.3625  -74.2171 C.3       11 UNK        -0.0881 
      7 S7        -80.1195   30.1082  -73.8100 S.3       11 UNK        -0.2682 
      8 C8        -79.9176   30.0415  -71.9991 C.3       11 UNK         0.0289 
      9 C9        -78.8205   29.0825  -71.5545 C.ar      11 UNK        -0.0687 
     10 C10       -79.1533   27.8892  -70.9046 C.ar      11 UNK        -0.0823 
     11 C11       -78.1543   27.0183  -70.4601 C.ar      11 UNK        -0.0830 
     12 C12       -76.8128   27.3535  -70.6653 C.ar      11 UNK        -0.1021 
     13 C13       -76.4680   28.5280  -71.3382 C.ar      11 UNK        -0.0753 
     14 C14       -77.4755   29.3920  -71.7782 C.ar      11 UNK        -0.0933 
     15 C15       -75.0048   28.8628  -71.5742 C.3       11 UNK         0.0166 
     16 S16       -74.3017   27.8328  -72.8974 S.3       11 UNK        -0.2615 
     17 C17       -72.6578   28.6064  -73.0717 C.3       11 UNK        -0.0865 
     18 CA        -72.6497   29.7001  -74.1704 C.3       10 UNK         0.0862 
     19 C         -71.3661   30.5803  -74.1098 C.2       10 UNK         0.5551 
     20 N         -70.6683   30.8397  -75.2094 N.am      10 UNK        -0.7319 
     21 O         -71.0037   31.0617  -73.0390 O.2       10 UNK        -0.5018 
     22 N         -72.9008   29.1181  -75.4966 N.am      10 UNK        -0.4509 
     23 C         -73.6673   29.6684  -76.4461 C.2       10 UNK         0.4899 
     24 O         -74.3281   30.6955  -76.2831 O.2       10 UNK        -0.4839 
     25 CA        -73.6855   28.9556  -77.8165 C.3       9 UNK         0.0222 
     26 CB        -74.1324   29.8843  -78.9656 C.3       9 UNK        -0.1966 
     27 N         -72.4155   28.2962  -78.1491 N.am      9 UNK        -0.4218 
     28 C         -71.2019   28.8661  -78.2181 C.2       9 UNK         0.5020 
     29 O         -71.0014   30.0707  -78.0516 O.2       9 UNK        -0.5274 
     30 CA        -70.0116   27.9228  -78.4829 C.3       8 UNK         0.0270 
     31 CB        -68.6697   28.5169  -78.0019 C.3       8 UNK        -0.1976 
     32 N         -70.1953   26.5679  -77.9403 N.am      8 UNK        -0.4313 
     33 C         -70.4031   26.2229  -76.6599 C.2       8 UNK         0.5041 
     34 O         -70.5168   27.0287  -75.7322 O.2       8 UNK        -0.5577 
     35 CA        -70.4671   24.7070  -76.3944 C.3       7 UNK         0.0284 
     36 CB        -69.0560   24.0950  -76.4509 C.3       7 UNK        -0.1958 
     37 N         -71.0751   24.3481  -75.1110 N.am      7 UNK        -0.4454 
     38 C         -72.3400   24.5880  -74.7450 C.2       7 UNK         0.5089 
     39 O         -73.1658   25.1801  -75.4458 O.2       7 UNK        -0.5125 
     40 CA        -72.7460   24.0266  -73.3735 C.3       6 UNK         0.0408 
     41 CB        -72.0017   24.7160  -72.2154 C.3       6 UNK        -0.1791 
     42 N         -74.1840   24.1843  -73.1820 N.am      6 UNK        -0.4762 
     43 C         -75.0107   23.2743  -72.6528 C.2       6 UNK         0.5007 
     44 O         -74.6342   22.1824  -72.2237 O.2       6 UNK        -0.5032 
     45 CA        -76.5094   23.6375  -72.5667 C.3       5 UNK         0.0783 
     46 C46       -76.9267   23.8309  -71.0870 C.3       11 UNK        -0.0857 
     47 S47       -78.6743   24.3189  -70.8738 S.3       11 UNK        -0.2512 
     48 C48       -78.5302   25.7338  -69.7347 C.3       11 UNK         0.0225 
     49 N         -76.8654   24.7824  -73.4167 N.am      5 UNK        -0.4615 
     50 C         -77.0313   24.6961  -74.7419 C.2       4 UNK         0.5053 
     51 O         -76.8434   23.6647  -75.3915 O.2       4 UNK        -0.5105 
     52 CA        -77.4752   25.9758  -75.4686 C.3       4 UNK         0.0263 
     53 CB        -76.2772   26.6719  -76.1316 C.3       4 UNK        -0.1981 
     54 N         -78.4861   25.6851  -76.4891 N.am      4 UNK        -0.4224 
     55 C         -79.7280   25.2677  -76.2181 C.2       3 UNK         0.4895 
     56 O         -80.1739   25.1316  -75.0725 O.2       3 UNK        -0.5091 
     57 CA        -80.6376   24.9671  -77.4184 C.3       3 UNK         0.0250 
     58 CB        -80.4978   23.5042  -77.8692 C.3       3 UNK        -0.1996 
     59 N         -81.9959   25.2119  -76.9587 N.am      3 UNK        -0.4254 
     60 C         -82.9505   25.9032  -77.5899 C.2       2 UNK         0.5004 
     61 O         -82.9271   26.1926  -78.7862 O.2       2 UNK        -0.5226 
     62 CA        -84.0873   26.4215  -76.6868 C.3       2 UNK         0.0269 
     63 CB        -85.1807   25.3557  -76.5101 C.3       2 UNK        -0.1926 
     64 N         -83.5583   26.8123  -75.3723 N.am      2 UNK        -0.4687 
     65 C         -82.7782   27.8879  -75.1733 C.2       1 UNK         0.5165 
     66 O         -82.6921   28.8075  -75.9887 O.2       1 UNK        -0.5079 
     67 H67       -83.3215   24.3002  -71.6177 H         1 UNK         0.0900 
     68 H68       -81.9971   24.8843  -70.6048 H         1 UNK         0.0900 
     69 H69       -81.6642   24.2783  -72.2269 H         1 UNK         0.0900 
     70 H70       -81.2418   25.9238  -73.6728 H         1 UNK         0.2959 
     71 H71       -82.3617   28.6357  -73.2304 H         1 UNK         0.1079 
     72 H72       -79.7194   27.7543  -73.6748 H         1 UNK         0.0837 
     73 H73       -80.1819   28.2060  -75.2657 H         1 UNK         0.0837 
     74 H74       -80.8723   29.7704  -71.5456 H         1 UNK         0.0685 
     75 H75       -79.6846   31.0433  -71.6358 H         1 UNK         0.0685 
     76 H76       -80.1926   27.6411  -70.7380 H         1 UNK         0.1434 
     77 H77       -76.0265   26.7053  -70.3069 H         1 UNK         0.1329 
     78 H78       -77.2166   30.3076  -72.2923 H         1 UNK         0.1335 
     79 H79       -74.4393   28.7089  -70.6539 H         1 UNK         0.0680 
     80 H80       -74.8927   29.9158  -71.8372 H         1 UNK         0.0680 
     81 H81       -71.9262   27.8332  -73.3125 H         1 UNK         0.1032 
     82 H82       -72.3589   29.0114  -72.1030 H         1 UNK         0.1032 
     83 H83       -73.4621   30.3892  -73.9332 H         1 UNK         0.0461 
     84 H84       -70.9532   30.4802  -76.1141 H         1 UNK         0.3453 
     85 H85       -69.8472   31.4187  -75.1409 H         1 UNK         0.3453 
     86 H86       -72.3511   28.2956  -75.7180 H         1 UNK         0.2984 
     87 H87       -74.4238   28.1585  -77.7338 H         1 UNK         0.0554 
     88 H88       -74.1554   29.3555  -79.9184 H         1 UNK         0.0847 
     89 H89       -73.4673   30.7418  -79.0736 H         1 UNK         0.0847 
     90 H90       -75.1363   30.2722  -78.7888 H         1 UNK         0.0847 
     91 H91       -72.4639   27.2947  -78.2756 H         1 UNK         0.3141 
     92 H92       -69.9531   27.8140  -79.5669 H         1 UNK         0.0743 
     93 H93       -68.6776   28.7135  -76.9290 H         1 UNK         0.0784 
     94 H94       -67.8386   27.8442  -78.2134 H         1 UNK         0.0784 
     95 H95       -68.4549   29.4613  -78.5037 H         1 UNK         0.0784 
     96 H96       -70.1254   25.8231  -78.6211 H         1 UNK         0.3213 
     97 H97       -71.0777   24.2548  -77.1791 H         1 UNK         0.0855 
     98 H98       -68.4083   24.5077  -75.6760 H         1 UNK         0.0814 
     99 H99       -68.5751   24.2884  -77.4107 H         1 UNK         0.0814 
    100 H100      -69.0855   23.0127  -76.3229 H         1 UNK         0.0814 
    101 H101      -70.4721   23.8757  -74.4540 H         1 UNK         0.3105 
    102 H102      -72.4879   22.9654  -73.3770 H         1 UNK         0.0547 
    103 H103      -70.9202   24.6287  -72.3229 H         1 UNK         0.0837 
    104 H104      -72.2392   25.7769  -72.1571 H         1 UNK         0.0837 
    105 H105      -72.2651   24.2667  -71.2579 H         1 UNK         0.0837 
    106 H106      -74.5752   25.0279  -73.5823 H         1 UNK         0.3020 
    107 H107      -77.0544   22.7678  -72.9421 H         1 UNK         0.1245 
    108 H108      -76.2750   24.5537  -70.5988 H         1 UNK         0.0781 
    109 H109      -76.7850   22.8983  -70.5372 H         1 UNK         0.0781 
    110 H110      -77.8043   25.5101  -68.9513 H         1 UNK         0.0836 
    111 H111      -79.4860   25.8652  -69.2252 H         1 UNK         0.0836 
    112 H112      -77.0478   25.6544  -72.9398 H         1 UNK         0.3022 
    113 H113      -77.9096   26.6618  -74.7392 H         1 UNK         0.0747 
    114 H114      -76.5751   27.6091  -76.6018 H         1 UNK         0.0793 
    115 H115      -75.5064   26.9097  -75.3988 H         1 UNK         0.0793 
    116 H116      -75.8128   26.0412  -76.8909 H         1 UNK         0.0793 
    117 H117      -78.1838   25.7352  -77.4511 H         1 UNK         0.3047 
    118 H118      -80.3875   25.6414  -78.2406 H         1 UNK         0.0822 
    119 H119      -79.4841   23.2962  -78.2136 H         1 UNK         0.0807 
    120 H120      -81.1748   23.2791  -78.6935 H         1 UNK         0.0807 
    121 H121      -80.7165   22.8093  -77.0571 H         1 UNK         0.0807 
    122 H122      -82.1006   25.0623  -75.9639 H         1 UNK         0.2946 
    123 H123      -84.5280   27.2980  -77.1680 H         1 UNK         0.1144 
    124 H124      -85.5959   25.0622  -77.4753 H         1 UNK         0.0793 
    125 H125      -86.0056   25.7319  -75.9047 H         1 UNK         0.0793 
    126 H126      -84.7974   24.4533  -76.0322 H         1 UNK         0.0793 
    127 H127      -83.6111   26.1283  -74.6313 H         1 UNK         0.2896 
@<TRIPOS>BOND
     1    1    2 1    
     2    1   67 1    
     3    1   68 1    
     4    1   69 1    
     5    2    3 2    
     6    2    4 am   BACKBONE|DICT|INTERRES
     7    4    5 1    
     8    4   70 1    
     9    5    6 1    
    10    5   65 1    
    11    5   71 1    
    12    6    7 1    
    13    6   72 1    
    14    6   73 1    
    15    7    8 1    
    16    8    9 1    
    17    8   74 1    
    18    8   75 1    
    19    9   10 ar   
    20    9   14 ar   
    21   10   11 ar   
    22   10   76 1    
    23   11   12 ar   
    24   11   48 1    
    25   12   13 ar   
    26   12   77 1    
    27   13   14 ar   
    28   13   15 1    
    29   14   78 1    
    30   15   16 1    
    31   15   79 1    
    32   15   80 1    
    33   16   17 1    
    34   17   18 1    
    35   17   81 1    
    36   17   82 1    
    37   18   19 1    
    38   18   22 1    
    39   18   83 1    
    40   19   20 am   BACKBONE|DICT|INTERRES
    41   19   21 2    
    42   20   84 1    
    43   20   85 1    
    44   22   23 am   BACKBONE|DICT|INTERRES
    45   22   86 1    
    46   23   24 2    
    47   23   25 1    
    48   25   26 1    
    49   25   27 1    
    50   25   87 1    
    51   26   88 1    
    52   26   89 1    
    53   26   90 1    
    54   27   28 am   BACKBONE|DICT|INTERRES
    55   27   91 1    
    56   28   29 2    
    57   28   30 1    
    58   30   31 1    
    59   30   32 1    
    60   30   92 1    
    61   31   93 1    
    62   31   94 1    
    63   31   95 1    
    64   32   33 am   BACKBONE|DICT|INTERRES
    65   32   96 1    
    66   33   34 2    
    67   33   35 1    
    68   35   36 1    
    69   35   37 1    
    70   35   97 1    
    71   36   98 1    
    72   36   99 1    
    73   36  100 1    
    74   37   38 am   BACKBONE|DICT|INTERRES
    75   37  101 1    
    76   38   39 2    
    77   38   40 1    
    78   40   41 1    
    79   40   42 1    
    80   40  102 1    
    81   41  103 1    
    82   41  104 1    
    83   41  105 1    
    84   42   43 am   BACKBONE|DICT|INTERRES
    85   42  106 1    
    86   43   44 2    
    87   43   45 1    
    88   45   46 1    
    89   45   49 1    
    90   45  107 1    
    91   46   47 1    
    92   46  108 1    
    93   46  109 1    
    94   47   48 1    
    95   48  110 1    
    96   48  111 1    
    97   49   50 am   BACKBONE|DICT|INTERRES
    98   49  112 1    
    99   50   51 2    
   100   50   52 1    
   101   52   53 1    
   102   52   54 1    
   103   52  113 1    
   104   53  114 1    
   105   53  115 1    
   106   53  116 1    
   107   54   55 am   BACKBONE|DICT|INTERRES
   108   54  117 1    
   109   55   56 2    
   110   55   57 1    
   111   57   58 1    
   112   57   59 1    
   113   57  118 1    
   114   58  119 1    
   115   58  120 1    
   116   58  121 1    
   117   59   60 am   BACKBONE|DICT|INTERRES
   118   59  122 1    
   119   60   61 2    
   120   60   62 1    
   121   62   63 1    
   122   62   64 1    
   123   62  123 1    
   124   63  124 1    
   125   63  125 1    
   126   63  126 1    
   127   64   65 am   BACKBONE|DICT|INTERRES
   128   64  127 1    
   129   65   66 2    
@<TRIPOS>SUBSTRUCTURE
     1 UNK         1 GROUP             0       ****    0 ROOT    
