@<TRIPOS>MOLECULE
3R135
127   129    1
SMALL
USER_CHARGES


@<TRIPOS>ATOM
      1 CA        -83.4290   23.7146  -71.8325 C.3       0 UNK        -0.1998 
      2 C         -82.4331   24.8654  -71.8389 C.2       0 UNK         0.4909 
      3 O         -81.5165   24.8750  -71.0174 O.2       0 UNK        -0.5240 
      4 N         -82.6258   25.8284  -72.7530 N.am      1 UNK        -0.4739 
      5 CA        -81.7855   27.0095  -73.0033 C.3       1 UNK         0.0864 
      6 C6        -81.4794   27.8270  -71.7183 C.3       11 UNK        -0.0881 
      7 S7        -81.1714   29.5960  -72.0432 S.3       11 UNK        -0.2682 
      8 C8        -79.7349   29.9170  -70.9715 C.3       11 UNK         0.0289 
      9 C9        -78.4305   29.4312  -71.5881 C.ar      11 UNK        -0.0687 
     10 C10       -77.8867   28.1947  -71.2278 C.ar      11 UNK        -0.0823 
     11 C11       -76.6665   27.7695  -71.7634 C.ar      11 UNK        -0.0830 
     12 C12       -75.9849   28.5942  -72.6636 C.ar      11 UNK        -0.1021 
     13 C13       -76.5125   29.8403  -73.0197 C.ar      11 UNK        -0.0753 
     14 C14       -77.7400   30.2464  -72.4882 C.ar      11 UNK        -0.0933 
     15 C15       -75.7541   30.7590  -73.9671 C.3       11 UNK         0.0166 
     16 S16       -75.1602   32.2708  -73.1423 S.3       11 UNK        -0.2615 
     17 C17       -73.9867   31.6152  -71.9040 C.3       11 UNK        -0.0865 
     18 CA        -72.5065   31.8514  -72.2991 C.3       10 UNK         0.0862 
     19 C         -71.5522   31.5465  -71.1073 C.2       10 UNK         0.5551 
     20 N         -70.6370   30.5900  -71.2119 N.am      10 UNK        -0.7319 
     21 O         -71.6389   32.1994  -70.0703 O.2       10 UNK        -0.5018 
     22 N         -72.1588   31.1384  -73.5386 N.am      10 UNK        -0.4509 
     23 C         -71.2197   31.5181  -74.4097 C.2       10 UNK         0.4899 
     24 O         -70.5660   32.5555  -74.2957 O.2       10 UNK        -0.4839 
     25 CA        -70.9511   30.6058  -75.6233 C.3       9 UNK         0.0222 
     26 CB        -69.7238   29.7087  -75.3675 C.3       9 UNK        -0.1966 
     27 N         -72.0935   29.8099  -76.1044 N.am      9 UNK        -0.4218 
     28 C         -72.7393   28.8019  -75.4997 C.2       9 UNK         0.5020 
     29 O         -72.5162   28.4350  -74.3454 O.2       9 UNK        -0.5274 
     30 CA        -73.8498   28.0906  -76.2957 C.3       8 UNK         0.0270 
     31 CB        -74.3741   28.8826  -77.5146 C.3       8 UNK        -0.1976 
     32 N         -73.4387   26.7395  -76.6864 N.am      8 UNK        -0.4313 
     33 C         -72.3708   26.3840  -77.4197 C.2       8 UNK         0.5041 
     34 O         -71.5783   27.1791  -77.9264 O.2       8 UNK        -0.5577 
     35 CA        -72.1456   24.8752  -77.6257 C.3       7 UNK         0.0284 
     36 CB        -71.1286   24.3414  -76.6040 C.3       7 UNK        -0.1958 
     37 N         -73.3822   24.0977  -77.5234 N.am      7 UNK        -0.4454 
     38 C         -74.3625   24.0900  -78.4338 C.2       7 UNK         0.5089 
     39 O         -74.2961   24.6781  -79.5134 O.2       7 UNK        -0.5125 
     40 CA        -75.6453   23.3227  -78.0743 C.3       6 UNK         0.0408 
     41 CB        -75.5047   21.8190  -78.3768 C.3       6 UNK        -0.1791 
     42 N         -76.1353   23.5556  -76.7085 N.am      6 UNK        -0.4762 
     43 C         -75.6160   23.1762  -75.5304 C.2       6 UNK         0.5007 
     44 O         -74.5195   22.6285  -75.4100 O.2       6 UNK        -0.5032 
     45 CA        -76.4723   23.4429  -74.2743 C.3       5 UNK         0.0783 
     46 C46       -76.1088   24.8026  -73.6285 C.3       11 UNK        -0.0857 
     47 S47       -76.9556   25.0215  -72.0293 S.3       11 UNK        -0.2512 
     48 C48       -76.0676   26.4424  -71.3205 C.3       11 UNK         0.0225 
     49 N         -77.9079   23.3284  -74.5614 N.am      5 UNK        -0.4615 
     50 C         -78.5316   22.1901  -74.8994 C.2       4 UNK         0.5053 
     51 O         -77.9868   21.0861  -74.9112 O.2       4 UNK        -0.5105 
     52 CA        -80.0034   22.3052  -75.3225 C.3       4 UNK         0.0263 
     53 CB        -80.9284   22.2112  -74.0996 C.3       4 UNK        -0.1981 
     54 N         -80.2506   23.5571  -76.0420 N.am      4 UNK        -0.4224 
     55 C         -79.9928   23.7344  -77.3470 C.2       3 UNK         0.4895 
     56 O         -79.6090   22.8353  -78.0955 O.2       3 UNK        -0.5091 
     57 CA        -80.1808   25.1496  -77.9251 C.3       3 UNK         0.0250 
     58 CB        -81.5899   25.3032  -78.5197 C.3       3 UNK        -0.1996 
     59 N         -79.9477   26.2201  -76.9530 N.am      3 UNK        -0.4254 
     60 C         -78.7611   26.5069  -76.3991 C.2       2 UNK         0.5004 
     61 O         -77.7160   25.9234  -76.6808 O.2       2 UNK        -0.5226 
     62 CA        -78.7443   27.6008  -75.3171 C.3       2 UNK         0.0269 
     63 CB        -78.4871   28.9696  -75.9666 C.3       2 UNK        -0.1926 
     64 N         -79.9631   27.6738  -74.5001 N.am      2 UNK        -0.4687 
     65 C         -80.5167   26.6617  -73.8155 C.2       1 UNK         0.5165 
     66 O         -80.0885   25.5056  -73.8598 O.2       1 UNK        -0.5079 
     67 H67       -84.0472   23.7598  -70.9363 H         1 UNK         0.0900 
     68 H68       -82.9022   22.7608  -71.8333 H         1 UNK         0.0900 
     69 H69       -84.0857   23.7375  -72.7019 H         1 UNK         0.0900 
     70 H70       -83.4016   25.7274  -73.3929 H         1 UNK         0.2959 
     71 H71       -82.4004   27.6341  -73.6538 H         1 UNK         0.1079 
     72 H72       -82.3333   27.7845  -71.0404 H         1 UNK         0.0837 
     73 H73       -80.6486   27.3848  -71.1679 H         1 UNK         0.0837 
     74 H74       -79.8945   29.4591  -69.9939 H         1 UNK         0.0685 
     75 H75       -79.6704   30.9911  -70.7914 H         1 UNK         0.0685 
     76 H76       -78.4037   27.5630  -70.5188 H         1 UNK         0.1434 
     77 H77       -75.0326   28.2765  -73.0658 H         1 UNK         0.1329 
     78 H78       -78.1474   31.2105  -72.7605 H         1 UNK         0.1335 
     79 H79       -74.9060   30.2449  -74.4132 H         1 UNK         0.0680 
     80 H80       -76.4070   31.0444  -74.7926 H         1 UNK         0.0680 
     81 H81       -74.1686   30.5551  -71.7243 H         1 UNK         0.1032 
     82 H82       -74.2137   32.1164  -70.9610 H         1 UNK         0.1032 
     83 H83       -72.3953   32.9207  -72.4895 H         1 UNK         0.0461 
     84 H84       -70.5626   30.0473  -72.0571 H         1 UNK         0.3453 
     85 H85       -70.0218   30.4060  -70.4351 H         1 UNK         0.3453 
     86 H86       -72.5730   30.2218  -73.6720 H         1 UNK         0.2984 
     87 H87       -70.6985   31.2711  -76.4504 H         1 UNK         0.0554 
     88 H88       -69.4727   29.1211  -76.2509 H         1 UNK         0.0847 
     89 H89       -69.8886   29.0157  -74.5420 H         1 UNK         0.0847 
     90 H90       -68.8473   30.3078  -75.1169 H         1 UNK         0.0847 
     91 H91       -72.3857   30.0239  -77.0480 H         1 UNK         0.3141 
     92 H92       -74.6874   27.9674  -75.6072 H         1 UNK         0.0743 
     93 H93       -73.6205   28.9964  -78.2946 H         1 UNK         0.0784 
     94 H94       -75.2300   28.3770  -77.9626 H         1 UNK         0.0784 
     95 H95       -74.7108   29.8789  -77.2244 H         1 UNK         0.0784 
     96 H96       -74.0034   25.9898  -76.3159 H         1 UNK         0.3213 
     97 H97       -71.7336   24.7363  -78.6277 H         1 UNK         0.0855 
     98 H98       -71.4929   24.4408  -75.5806 H         1 UNK         0.0814 
     99 H99       -70.1867   24.8881  -76.6695 H         1 UNK         0.0814 
    100 H100      -70.9041   23.2892  -76.7801 H         1 UNK         0.0814 
    101 H101      -73.5349   23.5552  -76.6756 H         1 UNK         0.3105 
    102 H102      -76.4309   23.7103  -78.7252 H         1 UNK         0.0547 
    103 H103      -75.2429   21.6565  -79.4231 H         1 UNK         0.0837 
    104 H104      -74.7284   21.3489  -77.7728 H         1 UNK         0.0837 
    105 H105      -76.4403   21.2911  -78.1908 H         1 UNK         0.0837 
    106 H106      -76.9701   24.1352  -76.6651 H         1 UNK         0.3020 
    107 H107      -76.2209   22.6542  -73.5611 H         1 UNK         0.1245 
    108 H108      -75.0324   24.8643  -73.4562 H         1 UNK         0.0781 
    109 H109      -76.3659   25.6337  -74.2858 H         1 UNK         0.0781 
    110 H110      -76.1222   26.3767  -70.2329 H         1 UNK         0.0836 
    111 H111      -75.0070   26.3854  -71.5702 H         1 UNK         0.0836 
    112 H112      -78.4519   24.1802  -74.4958 H         1 UNK         0.3022 
    113 H113      -80.2327   21.4651  -75.9819 H         1 UNK         0.0747 
    114 H114      -81.9750   22.3267  -74.3813 H         1 UNK         0.0793 
    115 H115      -80.8274   21.2409  -73.6119 H         1 UNK         0.0793 
    116 H116      -80.6913   22.9716  -73.3553 H         1 UNK         0.0793 
    117 H117      -80.4953   24.3596  -75.4718 H         1 UNK         0.3047 
    118 H118      -79.4541   25.2697  -78.7319 H         1 UNK         0.0822 
    119 H119      -81.7108   26.2688  -79.0113 H         1 UNK         0.0807 
    120 H120      -82.3636   25.2143  -77.7560 H         1 UNK         0.0807 
    121 H121      -81.7826   24.5343  -79.2695 H         1 UNK         0.0807 
    122 H122      -80.7508   26.7576  -76.6609 H         1 UNK         0.2946 
    123 H123      -77.9201   27.3808  -74.6362 H         1 UNK         0.1144 
    124 H124      -78.4672   29.7669  -75.2253 H         1 UNK         0.0793 
    125 H125      -79.2553   29.2198  -76.6994 H         1 UNK         0.0793 
    126 H126      -77.5259   28.9810  -76.4825 H         1 UNK         0.0793 
    127 H127      -80.3639   28.5944  -74.3838 H         1 UNK         0.2896 
@<TRIPOS>BOND
     1    1    2 1    
     2    1   67 1    
     3    1   68 1    
     4    1   69 1    
     5    2    3 2    
     6    2    4 am   BACKBONE|DICT|INTERRES
     7    4    5 1    
     8    4   70 1    
     9    5    6 1    
    10    5   65 1    
    11    5   71 1    
    12    6    7 1    
    13    6   72 1    
    14    6   73 1    
    15    7    8 1    
    16    8    9 1    
    17    8   74 1    
    18    8   75 1    
    19    9   10 ar   
    20    9   14 ar   
    21   10   11 ar   
    22   10   76 1    
    23   11   12 ar   
    24   11   48 1    
    25   12   13 ar   
    26   12   77 1    
    27   13   14 ar   
    28   13   15 1    
    29   14   78 1    
    30   15   16 1    
    31   15   79 1    
    32   15   80 1    
    33   16   17 1    
    34   17   18 1    
    35   17   81 1    
    36   17   82 1    
    37   18   19 1    
    38   18   22 1    
    39   18   83 1    
    40   19   20 am   BACKBONE|DICT|INTERRES
    41   19   21 2    
    42   20   84 1    
    43   20   85 1    
    44   22   23 am   BACKBONE|DICT|INTERRES
    45   22   86 1    
    46   23   24 2    
    47   23   25 1    
    48   25   26 1    
    49   25   27 1    
    50   25   87 1    
    51   26   88 1    
    52   26   89 1    
    53   26   90 1    
    54   27   28 am   BACKBONE|DICT|INTERRES
    55   27   91 1    
    56   28   29 2    
    57   28   30 1    
    58   30   31 1    
    59   30   32 1    
    60   30   92 1    
    61   31   93 1    
    62   31   94 1    
    63   31   95 1    
    64   32   33 am   BACKBONE|DICT|INTERRES
    65   32   96 1    
    66   33   34 2    
    67   33   35 1    
    68   35   36 1    
    69   35   37 1    
    70   35   97 1    
    71   36   98 1    
    72   36   99 1    
    73   36  100 1    
    74   37   38 am   BACKBONE|DICT|INTERRES
    75   37  101 1    
    76   38   39 2    
    77   38   40 1    
    78   40   41 1    
    79   40   42 1    
    80   40  102 1    
    81   41  103 1    
    82   41  104 1    
    83   41  105 1    
    84   42   43 am   BACKBONE|DICT|INTERRES
    85   42  106 1    
    86   43   44 2    
    87   43   45 1    
    88   45   46 1    
    89   45   49 1    
    90   45  107 1    
    91   46   47 1    
    92   46  108 1    
    93   46  109 1    
    94   47   48 1    
    95   48  110 1    
    96   48  111 1    
    97   49   50 am   BACKBONE|DICT|INTERRES
    98   49  112 1    
    99   50   51 2    
   100   50   52 1    
   101   52   53 1    
   102   52   54 1    
   103   52  113 1    
   104   53  114 1    
   105   53  115 1    
   106   53  116 1    
   107   54   55 am   BACKBONE|DICT|INTERRES
   108   54  117 1    
   109   55   56 2    
   110   55   57 1    
   111   57   58 1    
   112   57   59 1    
   113   57  118 1    
   114   58  119 1    
   115   58  120 1    
   116   58  121 1    
   117   59   60 am   BACKBONE|DICT|INTERRES
   118   59  122 1    
   119   60   61 2    
   120   60   62 1    
   121   62   63 1    
   122   62   64 1    
   123   62  123 1    
   124   63  124 1    
   125   63  125 1    
   126   63  126 1    
   127   64   65 am   BACKBONE|DICT|INTERRES
   128   64  127 1    
   129   65   66 2    
@<TRIPOS>SUBSTRUCTURE
     1 UNK         1 GROUP             0       ****    0 ROOT    
