@<TRIPOS>MOLECULE
3R135
127   129    1
SMALL
USER_CHARGES


@<TRIPOS>ATOM
      1 CA        -79.3561   31.6816  -74.0911 C.3       0 UNK        -0.1998 
      2 C         -79.0109   30.2013  -74.0591 C.2       0 UNK         0.4909 
      3 O         -77.9020   29.8177  -74.4320 O.2       0 UNK        -0.5240 
      4 N         -79.9607   29.3576  -73.6361 N.am      1 UNK        -0.4739 
      5 CA        -79.8023   27.9069  -73.4648 C.3       1 UNK         0.0864 
      6 C6        -80.8120   27.3266  -72.4361 C.3       11 UNK        -0.0881 
      7 S7        -80.9150   28.2610  -70.8713 S.3       11 UNK        -0.2682 
      8 C8        -79.7357   27.3667  -69.8124 C.3       11 UNK         0.0289 
      9 C9        -78.2894   27.6992  -70.1523 C.ar      11 UNK        -0.0687 
     10 C10       -77.4190   26.7039  -70.6072 C.ar      11 UNK        -0.0823 
     11 C11       -76.0777   27.0020  -70.8716 C.ar      11 UNK        -0.0830 
     12 C12       -75.6121   28.3073  -70.6835 C.ar      11 UNK        -0.1021 
     13 C13       -76.4725   29.3109  -70.2313 C.ar      11 UNK        -0.0753 
     14 C14       -77.8092   28.9996  -69.9673 C.ar      11 UNK        -0.0933 
     15 C15       -75.9566   30.7197  -69.9769 C.3       11 UNK         0.0166 
     16 S16       -76.2729   31.8290  -71.3868 S.3       11 UNK        -0.2615 
     17 C17       -74.6540   31.9101  -72.2371 C.3       11 UNK        -0.0865 
     18 CA        -74.6575   31.2783  -73.6603 C.3       10 UNK         0.0862 
     19 C         -75.3307   32.1643  -74.7567 C.2       10 UNK         0.5551 
     20 N         -74.8927   32.1139  -76.0121 N.am      10 UNK        -0.7319 
     21 O         -76.2456   32.9347  -74.4795 O.2       10 UNK        -0.5018 
     22 N         -73.3121   30.8624  -74.0763 N.am      10 UNK        -0.4509 
     23 C         -72.6230   29.8038  -73.6495 C.2       10 UNK         0.4899 
     24 O         -72.9990   29.0467  -72.7571 O.2       10 UNK        -0.4839 
     25 CA        -71.2800   29.5542  -74.3617 C.3       9 UNK         0.0222 
     26 CB        -70.3375   28.6643  -73.5296 C.3       9 UNK        -0.1966 
     27 N         -71.4634   28.9419  -75.6796 N.am      9 UNK        -0.4218 
     28 C         -71.9994   29.5216  -76.7642 C.2       9 UNK         0.5020 
     29 O         -72.4066   30.6852  -76.7887 O.2       9 UNK        -0.5274 
     30 CA        -72.0826   28.6761  -78.0495 C.3       8 UNK         0.0270 
     31 CB        -71.0067   29.1233  -79.0533 C.3       8 UNK        -0.1976 
     32 N         -71.9499   27.2335  -77.8150 N.am      8 UNK        -0.4313 
     33 C         -72.9189   26.4599  -77.3108 C.2       8 UNK         0.5041 
     34 O         -74.0423   26.8712  -77.0079 O.2       8 UNK        -0.5577 
     35 CA        -72.5648   24.9856  -77.0883 C.3       7 UNK         0.0284 
     36 CB        -71.7181   24.8068  -75.8134 C.3       7 UNK        -0.1958 
     37 N         -73.8109   24.2413  -76.9643 N.am      7 UNK        -0.4454 
     38 C         -73.9830   22.9320  -77.1728 C.2       7 UNK         0.5089 
     39 O         -73.0751   22.1672  -77.5037 O.2       7 UNK        -0.5125 
     40 CA        -75.4188   22.4005  -76.9868 C.3       6 UNK         0.0408 
     41 CB        -75.4836   20.8725  -76.7833 C.3       6 UNK        -0.1791 
     42 N         -76.1498   23.1097  -75.9304 N.am      6 UNK        -0.4762 
     43 C         -75.8632   23.1482  -74.6187 C.2       6 UNK         0.5007 
     44 O         -74.9532   22.5094  -74.0892 O.2       6 UNK        -0.5032 
     45 CA        -76.7717   24.0409  -73.7506 C.3       5 UNK         0.0783 
     46 C46       -76.3823   25.5385  -73.8312 C.3       11 UNK        -0.0857 
     47 S47       -74.7620   25.9316  -73.0939 S.3       11 UNK        -0.2512 
     48 C48       -75.1167   25.9039  -71.3070 C.3       11 UNK         0.0225 
     49 N         -78.1721   23.8425  -74.1281 N.am      5 UNK        -0.4615 
     50 C         -78.9489   22.8502  -73.6733 C.2       4 UNK         0.5053 
     51 O         -78.6070   22.0710  -72.7839 O.2       4 UNK        -0.5105 
     52 CA        -80.3373   22.6852  -74.3177 C.3       4 UNK         0.0263 
     53 CB        -81.4355   23.2716  -73.4165 C.3       4 UNK        -0.1981 
     54 N         -80.4135   23.2937  -75.6496 N.am      4 UNK        -0.4224 
     55 C         -79.9561   22.7014  -76.7641 C.2       3 UNK         0.4895 
     56 O         -79.5037   21.5566  -76.7897 O.2       3 UNK        -0.5091 
     57 CA        -79.9839   23.5138  -78.0730 C.3       3 UNK         0.0250 
     58 CB        -81.2395   23.1695  -78.8903 C.3       3 UNK        -0.1996 
     59 N         -79.9114   24.9669  -77.8912 N.am      3 UNK        -0.4254 
     60 C         -78.8898   25.6258  -77.3273 C.2       2 UNK         0.5004 
     61 O         -77.8904   25.0666  -76.8770 O.2       2 UNK        -0.5226 
     62 CA        -79.0096   27.1553  -77.1927 C.3       2 UNK         0.0269 
     63 CB        -80.2053   27.7640  -77.9600 C.3       2 UNK        -0.1926 
     64 N         -79.0491   27.5890  -75.7906 N.am      2 UNK        -0.4687 
     65 C         -79.8702   27.1601  -74.8208 C.2       1 UNK         0.5165 
     66 O         -80.6755   26.2393  -74.9784 O.2       1 UNK        -0.5079 
     67 H67       -78.7493   32.2195  -73.3630 H         1 UNK         0.0900 
     68 H68       -79.1462   32.0949  -75.0773 H         1 UNK         0.0900 
     69 H69       -80.4058   31.8624  -73.8612 H         1 UNK         0.0900 
     70 H70       -80.8583   29.7249  -73.3538 H         1 UNK         0.2959 
     71 H71       -78.8018   27.7358  -73.0639 H         1 UNK         0.1079 
     72 H72       -81.8184   27.3102  -72.8594 H         1 UNK         0.0837 
     73 H73       -80.5640   26.2887  -72.2104 H         1 UNK         0.0837 
     74 H74       -79.9234   26.2938  -69.8772 H         1 UNK         0.0685 
     75 H75       -79.9221   27.6448  -68.7742 H         1 UNK         0.0685 
     76 H76       -77.7803   25.6929  -70.7379 H         1 UNK         0.1434 
     77 H77       -74.5737   28.5376  -70.8734 H         1 UNK         0.1329 
     78 H78       -78.4779   29.7698  -69.6078 H         1 UNK         0.1335 
     79 H79       -74.8960   30.7012  -69.7235 H         1 UNK         0.0680 
     80 H80       -76.4594   31.1316  -69.1006 H         1 UNK         0.0680 
     81 H81       -73.9118   31.4152  -71.6110 H         1 UNK         0.1032 
     82 H82       -74.3362   32.9529  -72.2857 H         1 UNK         0.1032 
     83 H83       -75.2603   30.3690  -73.6199 H         1 UNK         0.0461 
     84 H84       -75.3359   32.7016  -76.6999 H         1 UNK         0.3453 
     85 H85       -74.1383   31.4983  -76.2947 H         1 UNK         0.3453 
     86 H86       -72.9314   31.3781  -74.8612 H         1 UNK         0.2984 
     87 H87       -70.7894   30.5202  -74.4987 H         1 UNK         0.0554 
     88 H88       -70.1730   29.0913  -72.5393 H         1 UNK         0.0847 
     89 H89       -69.3610   28.5654  -74.0038 H         1 UNK         0.0847 
     90 H90       -70.7456   27.6625  -73.3872 H         1 UNK         0.0847 
     91 H91       -71.1884   27.9754  -75.7614 H         1 UNK         0.3141 
     92 H92       -73.0616   28.8647  -78.4958 H         1 UNK         0.0743 
     93 H93       -71.0993   30.1874  -79.2763 H         1 UNK         0.0784 
     94 H94       -69.9994   28.9584  -78.6684 H         1 UNK         0.0784 
     95 H95       -71.0984   28.5884  -79.9989 H         1 UNK         0.0784 
     96 H96       -71.0600   26.8153  -78.0494 H         1 UNK         0.3213 
     97 H97       -72.0136   24.6212  -77.9581 H         1 UNK         0.0855 
     98 H98       -72.2403   25.1787  -74.9304 H         1 UNK         0.0814 
     99 H99       -70.7716   25.3433  -75.8864 H         1 UNK         0.0814 
    100 H100      -71.4788   23.7577  -75.6390 H         1 UNK         0.0814 
    101 H101      -74.6110   24.8236  -76.7434 H         1 UNK         0.3105 
    102 H102      -75.9456   22.6278  -77.9147 H         1 UNK         0.0547 
    103 H103      -76.5124   20.5339  -76.6584 H         1 UNK         0.0837 
    104 H104      -74.9153   20.5535  -75.9094 H         1 UNK         0.0837 
    105 H105      -75.0726   20.3466  -77.6457 H         1 UNK         0.0837 
    106 H106      -76.8881   23.7289  -76.2652 H         1 UNK         0.3020 
    107 H107      -76.6481   23.7138  -72.7163 H         1 UNK         0.1245 
    108 H108      -77.1359   26.1472  -73.3357 H         1 UNK         0.0781 
    109 H109      -76.3683   25.8830  -74.8666 H         1 UNK         0.0781 
    110 H110      -74.1745   26.0223  -70.7698 H         1 UNK         0.0836 
    111 H111      -75.4971   24.9222  -71.0228 H         1 UNK         0.0836 
    112 H112      -78.5077   24.4016  -74.9016 H         1 UNK         0.3022 
    113 H113      -80.5251   21.6130  -74.4094 H         1 UNK         0.0747 
    114 H114      -82.4263   23.0957  -73.8355 H         1 UNK         0.0793 
    115 H115      -81.4161   22.8111  -72.4277 H         1 UNK         0.0793 
    116 H116      -81.3184   24.3447  -73.2772 H         1 UNK         0.0793 
    117 H117      -80.7425   24.2531  -75.6940 H         1 UNK         0.3047 
    118 H118      -79.1074   23.2149  -78.6520 H         1 UNK         0.0822 
    119 H119      -81.2252   23.6562  -79.8657 H         1 UNK         0.0807 
    120 H120      -82.1521   23.4726  -78.3754 H         1 UNK         0.0807 
    121 H121      -81.3074   22.0952  -79.0683 H         1 UNK         0.0807 
    122 H122      -80.7078   25.5028  -78.2044 H         1 UNK         0.2946 
    123 H123      -78.0934   27.5649  -77.6216 H         1 UNK         0.1144 
    124 H124      -80.1732   27.5032  -79.0189 H         1 UNK         0.0793 
    125 H125      -80.1871   28.8526  -77.9036 H         1 UNK         0.0793 
    126 H126      -81.1651   27.4344  -77.5598 H         1 UNK         0.0793 
    127 H127      -78.4190   28.3479  -75.5400 H         1 UNK         0.2896 
@<TRIPOS>BOND
     1    1    2 1    
     2    1   67 1    
     3    1   68 1    
     4    1   69 1    
     5    2    3 2    
     6    2    4 am   BACKBONE|DICT|INTERRES
     7    4    5 1    
     8    4   70 1    
     9    5    6 1    
    10    5   65 1    
    11    5   71 1    
    12    6    7 1    
    13    6   72 1    
    14    6   73 1    
    15    7    8 1    
    16    8    9 1    
    17    8   74 1    
    18    8   75 1    
    19    9   10 ar   
    20    9   14 ar   
    21   10   11 ar   
    22   10   76 1    
    23   11   12 ar   
    24   11   48 1    
    25   12   13 ar   
    26   12   77 1    
    27   13   14 ar   
    28   13   15 1    
    29   14   78 1    
    30   15   16 1    
    31   15   79 1    
    32   15   80 1    
    33   16   17 1    
    34   17   18 1    
    35   17   81 1    
    36   17   82 1    
    37   18   19 1    
    38   18   22 1    
    39   18   83 1    
    40   19   20 am   BACKBONE|DICT|INTERRES
    41   19   21 2    
    42   20   84 1    
    43   20   85 1    
    44   22   23 am   BACKBONE|DICT|INTERRES
    45   22   86 1    
    46   23   24 2    
    47   23   25 1    
    48   25   26 1    
    49   25   27 1    
    50   25   87 1    
    51   26   88 1    
    52   26   89 1    
    53   26   90 1    
    54   27   28 am   BACKBONE|DICT|INTERRES
    55   27   91 1    
    56   28   29 2    
    57   28   30 1    
    58   30   31 1    
    59   30   32 1    
    60   30   92 1    
    61   31   93 1    
    62   31   94 1    
    63   31   95 1    
    64   32   33 am   BACKBONE|DICT|INTERRES
    65   32   96 1    
    66   33   34 2    
    67   33   35 1    
    68   35   36 1    
    69   35   37 1    
    70   35   97 1    
    71   36   98 1    
    72   36   99 1    
    73   36  100 1    
    74   37   38 am   BACKBONE|DICT|INTERRES
    75   37  101 1    
    76   38   39 2    
    77   38   40 1    
    78   40   41 1    
    79   40   42 1    
    80   40  102 1    
    81   41  103 1    
    82   41  104 1    
    83   41  105 1    
    84   42   43 am   BACKBONE|DICT|INTERRES
    85   42  106 1    
    86   43   44 2    
    87   43   45 1    
    88   45   46 1    
    89   45   49 1    
    90   45  107 1    
    91   46   47 1    
    92   46  108 1    
    93   46  109 1    
    94   47   48 1    
    95   48  110 1    
    96   48  111 1    
    97   49   50 am   BACKBONE|DICT|INTERRES
    98   49  112 1    
    99   50   51 2    
   100   50   52 1    
   101   52   53 1    
   102   52   54 1    
   103   52  113 1    
   104   53  114 1    
   105   53  115 1    
   106   53  116 1    
   107   54   55 am   BACKBONE|DICT|INTERRES
   108   54  117 1    
   109   55   56 2    
   110   55   57 1    
   111   57   58 1    
   112   57   59 1    
   113   57  118 1    
   114   58  119 1    
   115   58  120 1    
   116   58  121 1    
   117   59   60 am   BACKBONE|DICT|INTERRES
   118   59  122 1    
   119   60   61 2    
   120   60   62 1    
   121   62   63 1    
   122   62   64 1    
   123   62  123 1    
   124   63  124 1    
   125   63  125 1    
   126   63  126 1    
   127   64   65 am   BACKBONE|DICT|INTERRES
   128   64  127 1    
   129   65   66 2    
@<TRIPOS>SUBSTRUCTURE
     1 UNK         1 GROUP             0       ****    0 ROOT    
