@<TRIPOS>MOLECULE
3R135
127   129    1
SMALL
USER_CHARGES


@<TRIPOS>ATOM
      1 CA        -84.6033   31.2034  -75.7192 C.3       0 UNK        -0.1998 
      2 C         -83.7159   30.0326  -75.3225 C.2       0 UNK         0.4909 
      3 O         -84.2243   29.0254  -74.8285 O.2       0 UNK        -0.5240 
      4 N         -82.3989   30.1663  -75.5353 N.am      1 UNK        -0.4739 
      5 CA        -81.3592   29.1638  -75.2547 C.3       1 UNK         0.0864 
      6 C6        -81.1861   28.8527  -73.7385 C.3       11 UNK        -0.0881 
      7 S7        -80.8122   30.3503  -72.7703 S.3       11 UNK        -0.2682 
      8 C8        -80.5482   29.6390  -71.1160 C.3       11 UNK         0.0289 
      9 C9        -79.2180   28.9054  -70.9997 C.ar      11 UNK        -0.0687 
     10 C10       -79.1829   27.5331  -70.7304 C.ar      11 UNK        -0.0823 
     11 C11       -77.9616   26.8730  -70.5511 C.ar      11 UNK        -0.0830 
     12 C12       -76.7685   27.5941  -70.6724 C.ar      11 UNK        -0.1021 
     13 C13       -76.7906   28.9620  -70.9581 C.ar      11 UNK        -0.0753 
     14 C14       -78.0177   29.6127  -71.1113 C.ar      11 UNK        -0.0933 
     15 C15       -75.4952   29.7506  -71.0704 C.3       11 UNK         0.0166 
     16 S16       -75.1003   30.1232  -72.8048 S.3       11 UNK        -0.2615 
     17 C17       -73.6782   31.2545  -72.6066 C.3       11 UNK        -0.0865 
     18 CA        -72.3266   30.6913  -73.1255 C.3       10 UNK         0.0862 
     19 C         -71.7099   29.5999  -72.2040 C.2       10 UNK         0.5551 
     20 N         -71.4529   29.9280  -70.9443 N.am      10 UNK        -0.7319 
     21 O         -71.4456   28.4700  -72.6101 O.2       10 UNK        -0.5018 
     22 N         -72.4414   30.2575  -74.5229 N.am      10 UNK        -0.4509 
     23 C         -71.5013   30.3999  -75.4610 C.2       10 UNK         0.4899 
     24 O         -70.4262   30.9769  -75.2859 O.2       10 UNK        -0.4839 
     25 CA        -71.8481   29.7854  -76.8259 C.3       9 UNK         0.0222 
     26 CB        -70.9026   30.2335  -77.9619 C.3       9 UNK        -0.1966 
     27 N         -71.9442   28.3245  -76.7417 N.am      9 UNK        -0.4218 
     28 C         -70.9557   27.4455  -76.5020 C.2       9 UNK         0.5020 
     29 O         -69.7780   27.7660  -76.3337 O.2       9 UNK        -0.5274 
     30 CA        -71.3157   25.9440  -76.4434 C.3       8 UNK         0.0270 
     31 CB        -71.1201   25.4026  -75.0169 C.3       8 UNK        -0.1976 
     32 N         -72.6744   25.6205  -76.8864 N.am      8 UNK        -0.4313 
     33 C         -73.1554   25.7696  -78.1283 C.2       8 UNK         0.5041 
     34 O         -72.4649   26.0936  -79.0950 O.2       8 UNK        -0.5577 
     35 CA        -74.6724   25.5767  -78.3174 C.3       7 UNK         0.0284 
     36 CB        -74.9711   24.1675  -78.8488 C.3       7 UNK        -0.1958 
     37 N         -75.4643   25.8282  -77.1047 N.am      7 UNK        -0.4454 
     38 C         -75.5200   27.0014  -76.4521 C.2       7 UNK         0.5089 
     39 O         -74.8894   28.0040  -76.7901 O.2       7 UNK        -0.5125 
     40 CA        -76.3905   27.0520  -75.1897 C.3       6 UNK         0.0408 
     41 CB        -77.8693   27.2285  -75.5533 C.3       6 UNK        -0.1791 
     42 N         -76.2173   25.8465  -74.3810 N.am      6 UNK        -0.4762 
     43 C         -75.1909   25.6537  -73.5392 C.2       6 UNK         0.5007 
     44 O         -74.3297   26.5006  -73.3072 O.2       6 UNK        -0.5032 
     45 CA        -75.0677   24.2640  -72.8799 C.3       5 UNK         0.0783 
     46 C46       -75.7623   24.1890  -71.4993 C.3       11 UNK        -0.0857 
     47 S47       -77.5872   24.2968  -71.5653 S.3       11 UNK        -0.2512 
     48 C48       -77.9437   25.3995  -70.1606 C.3       11 UNK         0.0225 
     49 N         -75.4916   23.1754  -73.7621 N.am      5 UNK        -0.4615 
     50 C         -74.8699   22.8283  -74.8953 C.2       4 UNK         0.5053 
     51 O         -73.8615   23.3883  -75.3221 O.2       4 UNK        -0.5105 
     52 CA        -75.4909   21.6771  -75.7024 C.3       4 UNK         0.0263 
     53 CB        -74.8977   20.3324  -75.2531 C.3       4 UNK        -0.1981 
     54 N         -76.9539   21.6105  -75.6332 N.am      4 UNK        -0.4224 
     55 C         -77.8025   22.5874  -75.9850 C.2       3 UNK         0.4895 
     56 O         -77.4400   23.7025  -76.3734 O.2       3 UNK        -0.5091 
     57 CA        -79.2973   22.2178  -75.9134 C.3       3 UNK         0.0250 
     58 CB        -79.6937   21.6300  -74.5389 C.3       3 UNK        -0.1996 
     59 N         -80.1889   23.3195  -76.2985 N.am      3 UNK        -0.4254 
     60 C         -80.4334   24.4500  -75.6219 C.2       2 UNK         0.5004 
     61 O         -79.9610   24.7258  -74.5156 O.2       2 UNK        -0.5226 
     62 CA        -81.3955   25.4349  -76.2978 C.3       2 UNK         0.0269 
     63 CB        -82.8460   24.9166  -76.2653 C.3       2 UNK        -0.1926 
     64 N         -81.3199   26.7152  -75.6019 N.am      2 UNK        -0.4687 
     65 C         -81.5460   27.9139  -76.1486 C.2       1 UNK         0.5165 
     66 O         -81.8682   28.0623  -77.3306 O.2       1 UNK        -0.5079 
     67 H67       -85.3304   30.8864  -76.4663 H         1 UNK         0.0900 
     68 H68       -85.1463   31.5732  -74.8498 H         1 UNK         0.0900 
     69 H69       -84.0276   32.0299  -76.1355 H         1 UNK         0.0900 
     70 H70       -82.0608   31.0158  -75.9651 H         1 UNK         0.2959 
     71 H71       -80.4229   29.6080  -75.5967 H         1 UNK         0.1079 
     72 H72       -80.3653   28.1536  -73.5744 H         1 UNK         0.0837 
     73 H73       -82.0826   28.3833  -73.3296 H         1 UNK         0.0837 
     74 H74       -81.3838   28.9826  -70.8679 H         1 UNK         0.0685 
     75 H75       -80.5675   30.4466  -70.3829 H         1 UNK         0.0685 
     76 H76       -80.1087   26.9832  -70.6294 H         1 UNK         0.1434 
     77 H77       -75.8187   27.1004  -70.5304 H         1 UNK         0.1329 
     78 H78       -78.0390   30.6742  -71.3176 H         1 UNK         0.1335 
     79 H79       -75.5918   30.6807  -70.5084 H         1 UNK         0.0680 
     80 H80       -74.6652   29.1999  -70.6245 H         1 UNK         0.0680 
     81 H81       -73.5944   31.5776  -71.5680 H         1 UNK         0.1032 
     82 H82       -73.9146   32.1633  -73.1621 H         1 UNK         0.1032 
     83 H83       -71.6172   31.5207  -73.0950 H         1 UNK         0.0461 
     84 H84       -71.6339   30.8552  -70.5941 H         1 UNK         0.3453 
     85 H85       -71.0473   29.2348  -70.3353 H         1 UNK         0.3453 
     86 H86       -73.2718   29.7230  -74.7368 H         1 UNK         0.2984 
     87 H87       -72.8478   30.1383  -77.0846 H         1 UNK         0.0554 
     88 H88       -70.9298   31.3172  -78.0812 H         1 UNK         0.0847 
     89 H89       -71.1940   29.7942  -78.9159 H         1 UNK         0.0847 
     90 H90       -69.8654   29.9586  -77.7694 H         1 UNK         0.0847 
     91 H91       -72.8884   27.9604  -76.8309 H         1 UNK         0.3141 
     92 H92       -70.6212   25.4232  -77.1055 H         1 UNK         0.0743 
     93 H93       -70.1052   25.5868  -74.6619 H         1 UNK         0.0784 
     94 H94       -71.8017   25.8790  -74.3106 H         1 UNK         0.0784 
     95 H95       -71.2862   24.3261  -74.9722 H         1 UNK         0.0784 
     96 H96       -73.2999   25.2450  -76.1817 H         1 UNK         0.3213 
     97 H97       -75.0002   26.2994  -79.0676 H         1 UNK         0.0855 
     98 H98       -74.5643   23.4014  -78.1911 H         1 UNK         0.0814 
     99 H99       -74.5189   24.0209  -79.8305 H         1 UNK         0.0814 
    100 H100      -76.0423   23.9937  -78.9543 H         1 UNK         0.0814 
    101 H101      -76.0420   25.0624  -76.7677 H         1 UNK         0.3105 
    102 H102      -76.0885   27.9196  -74.6002 H         1 UNK         0.0547 
    103 H103      -78.2290   26.4209  -76.1913 H         1 UNK         0.0837 
    104 H104      -78.0306   28.1657  -76.0869 H         1 UNK         0.0837 
    105 H105      -78.4871   27.2495  -74.6566 H         1 UNK         0.0837 
    106 H106      -76.8745   25.0915  -74.5332 H         1 UNK         0.3020 
    107 H107      -73.9989   24.1179  -72.7039 H         1 UNK         0.1245 
    108 H108      -75.3579   24.9548  -70.8382 H         1 UNK         0.0781 
    109 H109      -75.5095   23.2417  -71.0207 H         1 UNK         0.0781 
    110 H110      -77.2228   25.2327  -69.3589 H         1 UNK         0.0836 
    111 H111      -78.9120   25.1151  -69.7460 H         1 UNK         0.0836 
    112 H112      -76.3298   22.6819  -73.4923 H         1 UNK         0.3022 
    113 H113      -75.2253   21.8254  -76.7488 H         1 UNK         0.0747 
    114 H114      -75.2450   19.5134  -75.8833 H         1 UNK         0.0793 
    115 H115      -73.8084   20.3462  -75.3165 H         1 UNK         0.0793 
    116 H116      -75.1607   20.0984  -74.2206 H         1 UNK         0.0793 
    117 H117      -77.3428   20.7276  -75.3350 H         1 UNK         0.3047 
    118 H118      -79.4548   21.4412  -76.6636 H         1 UNK         0.0822 
    119 H119      -80.7688   21.4614  -74.4760 H         1 UNK         0.0807 
    120 H120      -79.4125   22.2894  -73.7166 H         1 UNK         0.0807 
    121 H121      -79.2132   20.6679  -74.3598 H         1 UNK         0.0807 
    122 H122      -80.6171   23.2167  -77.2080 H         1 UNK         0.2946 
    123 H123      -81.0717   25.5644  -77.3334 H         1 UNK         0.1144 
    124 H124      -83.5287   25.6181  -76.7452 H         1 UNK         0.0793 
    125 H125      -83.1927   24.7611  -75.2428 H         1 UNK         0.0793 
    126 H126      -82.9405   23.9659  -76.7912 H         1 UNK         0.0793 
    127 H127      -80.9923   26.6388  -74.6470 H         1 UNK         0.2896 
@<TRIPOS>BOND
     1    1    2 1    
     2    1   67 1    
     3    1   68 1    
     4    1   69 1    
     5    2    3 2    
     6    2    4 am   BACKBONE|DICT|INTERRES
     7    4    5 1    
     8    4   70 1    
     9    5    6 1    
    10    5   65 1    
    11    5   71 1    
    12    6    7 1    
    13    6   72 1    
    14    6   73 1    
    15    7    8 1    
    16    8    9 1    
    17    8   74 1    
    18    8   75 1    
    19    9   10 ar   
    20    9   14 ar   
    21   10   11 ar   
    22   10   76 1    
    23   11   12 ar   
    24   11   48 1    
    25   12   13 ar   
    26   12   77 1    
    27   13   14 ar   
    28   13   15 1    
    29   14   78 1    
    30   15   16 1    
    31   15   79 1    
    32   15   80 1    
    33   16   17 1    
    34   17   18 1    
    35   17   81 1    
    36   17   82 1    
    37   18   19 1    
    38   18   22 1    
    39   18   83 1    
    40   19   20 am   BACKBONE|DICT|INTERRES
    41   19   21 2    
    42   20   84 1    
    43   20   85 1    
    44   22   23 am   BACKBONE|DICT|INTERRES
    45   22   86 1    
    46   23   24 2    
    47   23   25 1    
    48   25   26 1    
    49   25   27 1    
    50   25   87 1    
    51   26   88 1    
    52   26   89 1    
    53   26   90 1    
    54   27   28 am   BACKBONE|DICT|INTERRES
    55   27   91 1    
    56   28   29 2    
    57   28   30 1    
    58   30   31 1    
    59   30   32 1    
    60   30   92 1    
    61   31   93 1    
    62   31   94 1    
    63   31   95 1    
    64   32   33 am   BACKBONE|DICT|INTERRES
    65   32   96 1    
    66   33   34 2    
    67   33   35 1    
    68   35   36 1    
    69   35   37 1    
    70   35   97 1    
    71   36   98 1    
    72   36   99 1    
    73   36  100 1    
    74   37   38 am   BACKBONE|DICT|INTERRES
    75   37  101 1    
    76   38   39 2    
    77   38   40 1    
    78   40   41 1    
    79   40   42 1    
    80   40  102 1    
    81   41  103 1    
    82   41  104 1    
    83   41  105 1    
    84   42   43 am   BACKBONE|DICT|INTERRES
    85   42  106 1    
    86   43   44 2    
    87   43   45 1    
    88   45   46 1    
    89   45   49 1    
    90   45  107 1    
    91   46   47 1    
    92   46  108 1    
    93   46  109 1    
    94   47   48 1    
    95   48  110 1    
    96   48  111 1    
    97   49   50 am   BACKBONE|DICT|INTERRES
    98   49  112 1    
    99   50   51 2    
   100   50   52 1    
   101   52   53 1    
   102   52   54 1    
   103   52  113 1    
   104   53  114 1    
   105   53  115 1    
   106   53  116 1    
   107   54   55 am   BACKBONE|DICT|INTERRES
   108   54  117 1    
   109   55   56 2    
   110   55   57 1    
   111   57   58 1    
   112   57   59 1    
   113   57  118 1    
   114   58  119 1    
   115   58  120 1    
   116   58  121 1    
   117   59   60 am   BACKBONE|DICT|INTERRES
   118   59  122 1    
   119   60   61 2    
   120   60   62 1    
   121   62   63 1    
   122   62   64 1    
   123   62  123 1    
   124   63  124 1    
   125   63  125 1    
   126   63  126 1    
   127   64   65 am   BACKBONE|DICT|INTERRES
   128   64  127 1    
   129   65   66 2    
@<TRIPOS>SUBSTRUCTURE
     1 UNK         1 GROUP             0       ****    0 ROOT    
