@<TRIPOS>MOLECULE
3R135
127   129    1
SMALL
USER_CHARGES


@<TRIPOS>ATOM
      1 CA        -78.9462   27.5972  -70.9634 C.3       0 UNK        -0.1998 
      2 C         -80.0831   27.8726  -71.9317 C.2       0 UNK         0.4909 
      3 O         -81.2349   27.5726  -71.6150 O.2       0 UNK        -0.5240 
      4 N         -79.7779   28.4475  -73.1044 N.am      1 UNK        -0.4739 
      5 CA        -80.7765   28.7703  -74.1319 C.3       1 UNK         0.0864 
      6 C6        -80.3260   29.9107  -75.0785 C.3       11 UNK        -0.0881 
      7 S7        -78.9185   29.5074  -76.1693 S.3       11 UNK        -0.2682 
      8 C8        -77.6266   30.6200  -75.5327 C.3       11 UNK         0.0289 
      9 C9        -77.0361   30.1090  -74.2280 C.ar      11 UNK        -0.0687 
     10 C10       -76.3484   28.8939  -74.2103 C.ar      11 UNK        -0.0823 
     11 C11       -75.8142   28.3967  -73.0222 C.ar      11 UNK        -0.0830 
     12 C12       -75.9704   29.1252  -71.8407 C.ar      11 UNK        -0.1021 
     13 C13       -76.6313   30.3581  -71.8471 C.ar      11 UNK        -0.0753 
     14 C14       -77.1660   30.8438  -73.0452 C.ar      11 UNK        -0.0933 
     15 C15       -76.7862   31.1567  -70.5592 C.3       11 UNK         0.0166 
     16 S16       -75.3588   32.2502  -70.2458 S.3       11 UNK        -0.2615 
     17 C17       -74.0890   31.0563  -69.6858 C.3       11 UNK        -0.0865 
     18 CA        -72.8905   30.8602  -70.6605 C.3       10 UNK         0.0862 
     19 C         -72.0298   29.6453  -70.2017 C.2       10 UNK         0.5551 
     20 N         -71.9673   28.5536  -70.9533 N.am      10 UNK        -0.7319 
     21 O         -71.4165   29.6970  -69.1386 O.2       10 UNK        -0.5018 
     22 N         -73.3086   30.8715  -72.0744 N.am      10 UNK        -0.4509 
     23 C         -72.4996   30.9056  -73.1382 C.2       10 UNK         0.4899 
     24 O         -71.2744   30.7910  -73.0886 O.2       10 UNK        -0.4839 
     25 CA        -73.1712   31.1347  -74.4933 C.3       9 UNK         0.0222 
     26 CB        -72.6202   32.4111  -75.1631 C.3       9 UNK        -0.1966 
     27 N         -72.9590   29.9561  -75.3308 N.am      9 UNK        -0.4218 
     28 C         -73.6142   29.6969  -76.4691 C.2       9 UNK         0.5020 
     29 O         -74.4038   30.4898  -76.9807 O.2       9 UNK        -0.5274 
     30 CA        -73.3470   28.3447  -77.1642 C.3       8 UNK         0.0270 
     31 CB        -72.2054   27.5229  -76.5295 C.3       8 UNK        -0.1976 
     32 N         -74.5549   27.5164  -77.1992 N.am      8 UNK        -0.4313 
     33 C         -75.5965   27.6714  -78.0334 C.2       8 UNK         0.5041 
     34 O         -75.6495   28.5209  -78.9249 O.2       8 UNK        -0.5577 
     35 CA        -76.7547   26.6628  -77.8637 C.3       7 UNK         0.0284 
     36 CB        -77.7699   26.6909  -79.0248 C.3       7 UNK        -0.1958 
     37 N         -76.2776   25.2959  -77.6278 N.am      7 UNK        -0.4454 
     38 C         -75.4243   24.5923  -78.3905 C.2       7 UNK         0.5089 
     39 O         -75.0274   24.9646  -79.4955 O.2       7 UNK        -0.5125 
     40 CA        -74.9117   23.2498  -77.8306 C.3       6 UNK         0.0408 
     41 CB        -73.4131   23.0398  -78.1334 C.3       6 UNK        -0.1791 
     42 N         -75.1771   23.0309  -76.4019 N.am      6 UNK        -0.4762 
     43 C         -74.7389   23.7501  -75.3539 C.2       6 UNK         0.5007 
     44 O         -74.0661   24.7766  -75.4692 O.2       6 UNK        -0.5032 
     45 CA        -75.1523   23.2372  -73.9574 C.3       5 UNK         0.0783 
     46 C46       -75.0411   24.2855  -72.8223 C.3       11 UNK        -0.0857 
     47 S47       -76.2224   25.6714  -72.9545 S.3       11 UNK        -0.2512 
     48 C48       -75.0696   27.0739  -73.0194 C.3       11 UNK         0.0225 
     49 N         -76.4831   22.6272  -74.0233 N.am      5 UNK        -0.4615 
     50 C         -76.7723   21.3663  -73.6779 C.2       4 UNK         0.5053 
     51 O         -75.9703   20.6005  -73.1433 O.2       4 UNK        -0.5105 
     52 CA        -78.1838   20.8509  -74.0236 C.3       4 UNK         0.0263 
     53 CB        -79.1194   21.0046  -72.8137 C.3       4 UNK        -0.1981 
     54 N         -78.7894   21.5127  -75.1846 N.am      4 UNK        -0.4224 
     55 C         -78.2758   21.5521  -76.4239 C.2       3 UNK         0.4895 
     56 O         -77.2586   20.9438  -76.7562 O.2       3 UNK        -0.5091 
     57 CA        -78.9693   22.4603  -77.4586 C.3       3 UNK         0.0250 
     58 CB        -79.6607   21.6146  -78.5399 C.3       3 UNK        -0.1996 
     59 N         -79.9423   23.3989  -76.8883 N.am      3 UNK        -0.4254 
     60 C         -79.6641   24.4058  -76.0483 C.2       2 UNK         0.5004 
     61 O         -78.5279   24.6805  -75.6496 O.2       2 UNK        -0.5226 
     62 CA        -80.8844   25.1643  -75.5168 C.3       2 UNK         0.0269 
     63 CB        -81.6173   24.3286  -74.4490 C.3       2 UNK        -0.1926 
     64 N         -80.4955   26.4463  -74.9358 N.am      2 UNK        -0.4687 
     65 C         -81.2885   27.5271  -74.8923 C.2       1 UNK         0.5165 
     66 O         -82.4104   27.5633  -75.4021 O.2       1 UNK        -0.5079 
     67 H67       -78.0362   27.3345  -71.4952 H         1 UNK         0.0900 
     68 H68       -79.1959   26.7660  -70.3046 H         1 UNK         0.0900 
     69 H69       -78.7501   28.4753  -70.3493 H         1 UNK         0.0900 
     70 H70       -78.8189   28.6855  -73.3238 H         1 UNK         0.2959 
     71 H71       -81.6519   29.1567  -73.6039 H         1 UNK         0.1079 
     72 H72       -81.1601   30.2099  -75.7162 H         1 UNK         0.0837 
     73 H73       -80.0886   30.7966  -74.4877 H         1 UNK         0.0837 
     74 H74       -76.8373   30.6907  -76.2791 H         1 UNK         0.0685 
     75 H75       -78.0283   31.6281  -75.4205 H         1 UNK         0.0685 
     76 H76       -76.2425   28.3281  -75.1237 H         1 UNK         0.1434 
     77 H77       -75.5743   28.7269  -70.9177 H         1 UNK         0.1329 
     78 H78       -77.6874   31.7913  -73.0543 H         1 UNK         0.1335 
     79 H79       -76.9341   30.4862  -69.7112 H         1 UNK         0.0680 
     80 H80       -77.6866   31.7706  -70.6138 H         1 UNK         0.0680 
     81 H81       -74.5699   30.1035  -69.4638 H         1 UNK         0.1032 
     82 H82       -73.7139   31.4079  -68.7227 H         1 UNK         0.1032 
     83 H83       -72.2456   31.7338  -70.5482 H         1 UNK         0.0461 
     84 H84       -72.4412   28.5244  -71.8396 H         1 UNK         0.3453 
     85 H85       -71.4057   27.7745  -70.6485 H         1 UNK         0.3453 
     86 H86       -74.3067   30.9503  -72.2181 H         1 UNK         0.2984 
     87 H87       -74.2452   31.2597  -74.3378 H         1 UNK         0.0554 
     88 H88       -73.1639   32.6572  -76.0748 H         1 UNK         0.0847 
     89 H89       -71.5656   32.3074  -75.4210 H         1 UNK         0.0847 
     90 H90       -72.7106   33.2704  -74.4974 H         1 UNK         0.0847 
     91 H91       -72.2952   29.2815  -74.9748 H         1 UNK         0.3141 
     92 H92       -73.0577   28.5726  -78.1922 H         1 UNK         0.0743 
     93 H93       -72.4327   27.2192  -75.5068 H         1 UNK         0.0784 
     94 H94       -72.0194   26.6132  -77.1014 H         1 UNK         0.0784 
     95 H95       -71.2697   28.0836  -76.5174 H         1 UNK         0.0784 
     96 H96       -74.5809   26.7409  -76.5478 H         1 UNK         0.3213 
     97 H97       -77.2874   26.9588  -76.9586 H         1 UNK         0.0855 
     98 H98       -78.2158   27.6811  -79.1262 H         1 UNK         0.0814 
     99 H99       -78.5837   25.9858  -78.8553 H         1 UNK         0.0814 
    100 H100      -77.3017   26.4436  -79.9779 H         1 UNK         0.0814 
    101 H101      -76.5803   24.8844  -76.7530 H         1 UNK         0.3105 
    102 H102      -75.4666   22.4743  -78.3602 H         1 UNK         0.0547 
    103 H103      -73.2233   23.0469  -79.2074 H         1 UNK         0.0837 
    104 H104      -72.7975   23.8239  -77.6911 H         1 UNK         0.0837 
    105 H105      -73.0611   22.0812  -77.7528 H         1 UNK         0.0837 
    106 H106      -75.7524   22.2168  -76.2080 H         1 UNK         0.3020 
    107 H107      -74.4141   22.4631  -73.7353 H         1 UNK         0.1245 
    108 H108      -74.0198   24.6660  -72.7633 H         1 UNK         0.0781 
    109 H109      -75.2201   23.7955  -71.8642 H         1 UNK         0.0781 
    110 H110      -74.4482   26.9951  -73.9122 H         1 UNK         0.0836 
    111 H111      -74.3935   27.0246  -72.1645 H         1 UNK         0.0836 
    112 H112      -77.2066   23.2059  -74.4340 H         1 UNK         0.3022 
    113 H113      -78.0947   19.7886  -74.2604 H         1 UNK         0.0747 
    114 H114      -80.0987   20.5672  -73.0092 H         1 UNK         0.0793 
    115 H115      -78.7104   20.4988  -71.9377 H         1 UNK         0.0793 
    116 H116      -79.2650   22.0522  -72.5462 H         1 UNK         0.0793 
    117 H117      -79.6313   22.0403  -75.0110 H         1 UNK         0.3047 
    118 H118      -78.1868   23.0504  -77.9389 H         1 UNK         0.0822 
    119 H119      -80.0762   22.2413  -79.3294 H         1 UNK         0.0807 
    120 H120      -80.4703   21.0122  -78.1260 H         1 UNK         0.0807 
    121 H121      -78.9546   20.9302  -79.0127 H         1 UNK         0.0807 
    122 H122      -80.9067   23.2417  -77.1458 H         1 UNK         0.2946 
    123 H123      -81.5534   25.3414  -76.3626 H         1 UNK         0.1144 
    124 H124      -81.9448   23.3672  -74.8463 H         1 UNK         0.0793 
    125 H125      -82.5081   24.8424  -74.0869 H         1 UNK         0.0793 
    126 H126      -80.9779   24.1290  -73.5879 H         1 UNK         0.0793 
    127 H127      -79.5596   26.4895  -74.5535 H         1 UNK         0.2896 
@<TRIPOS>BOND
     1    1    2 1    
     2    1   67 1    
     3    1   68 1    
     4    1   69 1    
     5    2    3 2    
     6    2    4 am   BACKBONE|DICT|INTERRES
     7    4    5 1    
     8    4   70 1    
     9    5    6 1    
    10    5   65 1    
    11    5   71 1    
    12    6    7 1    
    13    6   72 1    
    14    6   73 1    
    15    7    8 1    
    16    8    9 1    
    17    8   74 1    
    18    8   75 1    
    19    9   10 ar   
    20    9   14 ar   
    21   10   11 ar   
    22   10   76 1    
    23   11   12 ar   
    24   11   48 1    
    25   12   13 ar   
    26   12   77 1    
    27   13   14 ar   
    28   13   15 1    
    29   14   78 1    
    30   15   16 1    
    31   15   79 1    
    32   15   80 1    
    33   16   17 1    
    34   17   18 1    
    35   17   81 1    
    36   17   82 1    
    37   18   19 1    
    38   18   22 1    
    39   18   83 1    
    40   19   20 am   BACKBONE|DICT|INTERRES
    41   19   21 2    
    42   20   84 1    
    43   20   85 1    
    44   22   23 am   BACKBONE|DICT|INTERRES
    45   22   86 1    
    46   23   24 2    
    47   23   25 1    
    48   25   26 1    
    49   25   27 1    
    50   25   87 1    
    51   26   88 1    
    52   26   89 1    
    53   26   90 1    
    54   27   28 am   BACKBONE|DICT|INTERRES
    55   27   91 1    
    56   28   29 2    
    57   28   30 1    
    58   30   31 1    
    59   30   32 1    
    60   30   92 1    
    61   31   93 1    
    62   31   94 1    
    63   31   95 1    
    64   32   33 am   BACKBONE|DICT|INTERRES
    65   32   96 1    
    66   33   34 2    
    67   33   35 1    
    68   35   36 1    
    69   35   37 1    
    70   35   97 1    
    71   36   98 1    
    72   36   99 1    
    73   36  100 1    
    74   37   38 am   BACKBONE|DICT|INTERRES
    75   37  101 1    
    76   38   39 2    
    77   38   40 1    
    78   40   41 1    
    79   40   42 1    
    80   40  102 1    
    81   41  103 1    
    82   41  104 1    
    83   41  105 1    
    84   42   43 am   BACKBONE|DICT|INTERRES
    85   42  106 1    
    86   43   44 2    
    87   43   45 1    
    88   45   46 1    
    89   45   49 1    
    90   45  107 1    
    91   46   47 1    
    92   46  108 1    
    93   46  109 1    
    94   47   48 1    
    95   48  110 1    
    96   48  111 1    
    97   49   50 am   BACKBONE|DICT|INTERRES
    98   49  112 1    
    99   50   51 2    
   100   50   52 1    
   101   52   53 1    
   102   52   54 1    
   103   52  113 1    
   104   53  114 1    
   105   53  115 1    
   106   53  116 1    
   107   54   55 am   BACKBONE|DICT|INTERRES
   108   54  117 1    
   109   55   56 2    
   110   55   57 1    
   111   57   58 1    
   112   57   59 1    
   113   57  118 1    
   114   58  119 1    
   115   58  120 1    
   116   58  121 1    
   117   59   60 am   BACKBONE|DICT|INTERRES
   118   59  122 1    
   119   60   61 2    
   120   60   62 1    
   121   62   63 1    
   122   62   64 1    
   123   62  123 1    
   124   63  124 1    
   125   63  125 1    
   126   63  126 1    
   127   64   65 am   BACKBONE|DICT|INTERRES
   128   64  127 1    
   129   65   66 2    
@<TRIPOS>SUBSTRUCTURE
     1 UNK         1 GROUP             0       ****    0 ROOT    
