@<TRIPOS>MOLECULE
3R135
127   129    1
SMALL
USER_CHARGES


@<TRIPOS>ATOM
      1 CA        -83.4849   30.6090  -77.7953 C.3       0 UNK        -0.1998 
      2 C         -82.6485   29.3999  -77.4038 C.2       0 UNK         0.4909 
      3 O         -82.1925   28.6618  -78.2782 O.2       0 UNK        -0.5240 
      4 N         -82.4359   29.1980  -76.0979 N.am      1 UNK        -0.4739 
      5 CA        -81.6932   28.0627  -75.5371 C.3       1 UNK         0.0864 
      6 C6        -81.2058   28.3482  -74.0932 C.3       11 UNK        -0.0881 
      7 S7        -80.1131   29.8083  -74.0060 S.3       11 UNK        -0.2682 
      8 C8        -80.0652   30.1193  -72.2134 C.3       11 UNK         0.0289 
      9 C9        -78.8288   29.5198  -71.5569 C.ar      11 UNK        -0.0687 
     10 C10       -78.7711   28.1547  -71.2592 C.ar      11 UNK        -0.0823 
     11 C11       -77.6522   27.6140  -70.6168 C.ar      11 UNK        -0.0830 
     12 C12       -76.5935   28.4518  -70.2561 C.ar      11 UNK        -0.1021 
     13 C13       -76.6364   29.8169  -70.5524 C.ar      11 UNK        -0.0753 
     14 C14       -77.7527   30.3430  -71.2097 C.ar      11 UNK        -0.0933 
     15 C15       -75.4944   30.7317  -70.1338 C.3       11 UNK         0.0166 
     16 S16       -74.2233   30.8710  -71.4271 S.3       11 UNK        -0.2615 
     17 C17       -73.3708   29.2668  -71.2573 C.3       11 UNK        -0.0865 
     18 CA        -72.0661   29.2020  -72.0889 C.3       10 UNK         0.0862 
     19 C         -71.2960   27.8915  -71.7947 C.2       10 UNK         0.5551 
     20 N         -70.1537   27.9763  -71.1232 N.am      10 UNK        -0.7319 
     21 O         -71.7462   26.7969  -72.1319 O.2       10 UNK        -0.5018 
     22 N         -72.3599   29.2754  -73.5209 N.am      10 UNK        -0.4509 
     23 C         -71.7975   30.1104  -74.3985 C.2       10 UNK         0.4899 
     24 O         -70.9645   30.9694  -74.1025 O.2       10 UNK        -0.4839 
     25 CA        -72.2520   29.9356  -75.8598 C.3       9 UNK         0.0222 
     26 CB        -71.5054   30.8555  -76.8495 C.3       9 UNK        -0.1966 
     27 N         -72.1901   28.5337  -76.2874 N.am      9 UNK        -0.4218 
     28 C         -71.1047   27.7461  -76.3596 C.2       9 UNK         0.5020 
     29 O         -69.9573   28.1304  -76.1279 O.2       9 UNK        -0.5274 
     30 CA        -71.3224   26.2680  -76.7386 C.3       8 UNK         0.0270 
     31 CB        -71.0712   25.3656  -75.5190 C.3       8 UNK        -0.1976 
     32 N         -72.6572   25.9801  -77.2687 N.am      8 UNK        -0.4313 
     33 C         -73.1106   26.3486  -78.4740 C.2       8 UNK         0.5041 
     34 O         -72.4265   26.9281  -79.3179 O.2       8 UNK        -0.5577 
     35 CA        -74.5905   26.0526  -78.7688 C.3       7 UNK         0.0284 
     36 CB        -74.7714   24.6118  -79.2741 C.3       7 UNK        -0.1958 
     37 N         -75.4492   26.2794  -77.6019 N.am      7 UNK        -0.4454 
     38 C         -75.7243   27.4834  -77.0794 C.2       7 UNK         0.5089 
     39 O         -75.2977   28.5436  -77.5356 O.2       7 UNK        -0.5125 
     40 CA        -76.5948   27.5024  -75.8131 C.3       6 UNK         0.0408 
     41 CB        -78.0795   27.3834  -76.1722 C.3       6 UNK        -0.1791 
     42 N         -76.2374   26.4342  -74.8809 N.am      6 UNK        -0.4762 
     43 C         -75.1081   26.4197  -74.1578 C.2       6 UNK         0.5007 
     44 O         -74.2748   27.3247  -74.1891 O.2       6 UNK        -0.5032 
     45 CA        -74.8312   25.1620  -73.3045 C.3       5 UNK         0.0783 
     46 C46       -75.3814   25.3144  -71.8624 C.3       11 UNK        -0.0857 
     47 S47       -77.1972   25.1232  -71.7440 S.3       11 UNK        -0.2512 
     48 C48       -77.6045   26.1303  -70.2855 C.3       11 UNK         0.0225 
     49 N         -75.3050   23.9262  -73.9400 N.am      5 UNK        -0.4615 
     50 C         -74.9544   23.4891  -75.1557 C.2       4 UNK         0.5053 
     51 O         -74.0824   24.0215  -75.8397 O.2       4 UNK        -0.5105 
     52 CA        -75.7300   22.2958  -75.7435 C.3       4 UNK         0.0263 
     53 CB        -74.8674   21.0251  -75.6880 C.3       4 UNK        -0.1981 
     54 N         -77.0351   22.0196  -75.1279 N.am      4 UNK        -0.4224 
     55 C         -78.0725   22.8659  -75.0428 C.2       3 UNK         0.4895 
     56 O         -78.0358   24.0427  -75.4145 O.2       3 UNK        -0.5091 
     57 CA        -79.3447   22.2891  -74.3985 C.3       3 UNK         0.0250 
     58 CB        -79.1347   21.9975  -72.9020 C.3       3 UNK        -0.1996 
     59 N         -80.4847   23.1946  -74.5371 N.am      3 UNK        -0.4254 
     60 C         -81.3052   23.2391  -75.5938 C.2       2 UNK         0.5004 
     61 O         -81.2009   22.5171  -76.5858 O.2       2 UNK        -0.5226 
     62 CA        -82.4291   24.2764  -75.5213 C.3       2 UNK         0.0269 
     63 CB        -83.3691   23.9955  -74.3277 C.3       2 UNK        -0.1926 
     64 N         -81.8460   25.6173  -75.4532 N.am      2 UNK        -0.4687 
     65 C         -82.5253   26.7629  -75.5920 C.2       1 UNK         0.5165 
     66 O         -83.7500   26.8162  -75.7364 O.2       1 UNK        -0.5079 
     67 H67       -83.8020   31.1843  -76.9256 H         1 UNK         0.0900 
     68 H68       -82.9109   31.2680  -78.4461 H         1 UNK         0.0900 
     69 H69       -84.3764   30.2890  -78.3337 H         1 UNK         0.0900 
     70 H70       -82.8427   29.8287  -75.4229 H         1 UNK         0.2959 
     71 H71       -80.8211   27.9043  -76.1720 H         1 UNK         0.1079 
     72 H72       -80.6552   27.4954  -73.6933 H         1 UNK         0.0837 
     73 H73       -82.0603   28.5007  -73.4315 H         1 UNK         0.0837 
     74 H74       -80.9649   29.7328  -71.7335 H         1 UNK         0.0685 
     75 H75       -80.0852   31.1981  -72.0545 H         1 UNK         0.0685 
     76 H76       -79.5992   27.5116  -71.5218 H         1 UNK         0.1434 
     77 H77       -75.7361   28.0427  -69.7400 H         1 UNK         0.1329 
     78 H78       -77.7900   31.4002  -71.4348 H         1 UNK         0.1335 
     79 H79       -75.8822   31.7287  -69.9188 H         1 UNK         0.0680 
     80 H80       -75.0420   30.3790  -69.2057 H         1 UNK         0.0680 
     81 H81       -74.0542   28.4741  -71.5647 H         1 UNK         0.1032 
     82 H82       -73.1556   29.1019  -70.1998 H         1 UNK         0.1032 
     83 H83       -71.4384   30.0453  -71.7937 H         1 UNK         0.0461 
     84 H84       -69.7804   28.8684  -70.8335 H         1 UNK         0.3453 
     85 H85       -69.6489   27.1303  -70.9104 H         1 UNK         0.3453 
     86 H86       -73.0123   28.5677  -73.8565 H         1 UNK         0.2984 
     87 H87       -73.3070   30.2126  -75.8873 H         1 UNK         0.0554 
     88 H88       -71.6525   31.9049  -76.5912 H         1 UNK         0.0847 
     89 H89       -71.8685   30.7186  -77.8680 H         1 UNK         0.0847 
     90 H90       -70.4309   30.6701  -76.8482 H         1 UNK         0.0847 
     91 H91       -73.0848   28.1044  -76.4823 H         1 UNK         0.3141 
     92 H92       -70.5900   26.0175  -77.5088 H         1 UNK         0.0743 
     93 H93       -70.0665   25.5129  -75.1206 H         1 UNK         0.0784 
     94 H94       -71.7744   25.5787  -74.7130 H         1 UNK         0.0784 
     95 H95       -71.1667   24.3107  -75.7771 H         1 UNK         0.0784 
     96 H96       -73.2686   25.4206  -76.6749 H         1 UNK         0.3213 
     97 H97       -74.9128   26.7331  -79.5601 H         1 UNK         0.0855 
     98 H98       -74.4591   23.8766  -78.5320 H         1 UNK         0.0814 
     99 H99       -74.1757   24.4388  -80.1713 H         1 UNK         0.0814 
    100 H100      -75.8107   24.4085  -79.5327 H         1 UNK         0.0814 
    101 H101      -75.8149   25.4628  -77.1340 H         1 UNK         0.3105 
    102 H102      -76.4443   28.4597  -75.3089 H         1 UNK         0.0547 
    103 H103      -78.2950   26.4704  -76.7286 H         1 UNK         0.0837 
    104 H104      -78.4003   28.2276  -76.7839 H         1 UNK         0.0837 
    105 H105      -78.6885   27.3778  -75.2700 H         1 UNK         0.0837 
    106 H106      -76.8644   25.6368  -74.8285 H         1 UNK         0.3020 
    107 H107      -73.7439   25.0828  -73.2344 H         1 UNK         0.1245 
    108 H108      -75.0788   26.2720  -71.4372 H         1 UNK         0.0781 
    109 H109      -74.9289   24.5559  -71.2220 H         1 UNK         0.0781 
    110 H110      -76.8880   25.9281  -69.4878 H         1 UNK         0.0836 
    111 H111      -78.5771   25.8158  -69.9043 H         1 UNK         0.0836 
    112 H112      -76.0480   23.4456  -73.4547 H         1 UNK         0.3022 
    113 H113      -75.9175   22.5324  -76.7926 H         1 UNK         0.0747 
    114 H114      -75.3461   20.1953  -76.2084 H         1 UNK         0.0793 
    115 H115      -73.9001   21.1874  -76.1664 H         1 UNK         0.0793 
    116 H116      -74.6741   20.7133  -74.6608 H         1 UNK         0.0793 
    117 H117      -77.1626   21.0806  -74.7783 H         1 UNK         0.3047 
    118 H118      -79.5738   21.3475  -74.9028 H         1 UNK         0.0822 
    119 H119      -80.0109   21.5118  -72.4719 H         1 UNK         0.0807 
    120 H120      -78.9527   22.9082  -72.3333 H         1 UNK         0.0807 
    121 H121      -78.2884   21.3311  -72.7330 H         1 UNK         0.0807 
    122 H122      -80.6296   23.8499  -73.7837 H         1 UNK         0.2946 
    123 H123      -83.0074   24.1981  -76.4448 H         1 UNK         0.1144 
    124 H124      -84.2729   24.6023  -74.3767 H         1 UNK         0.0793 
    125 H125      -82.8876   24.1967  -73.3706 H         1 UNK         0.0793 
    126 H126      -83.6902   22.9529  -74.3201 H         1 UNK         0.0793 
    127 H127      -80.8379   25.6451  -75.3745 H         1 UNK         0.2896 
@<TRIPOS>BOND
     1    1    2 1    
     2    1   67 1    
     3    1   68 1    
     4    1   69 1    
     5    2    3 2    
     6    2    4 am   BACKBONE|DICT|INTERRES
     7    4    5 1    
     8    4   70 1    
     9    5    6 1    
    10    5   65 1    
    11    5   71 1    
    12    6    7 1    
    13    6   72 1    
    14    6   73 1    
    15    7    8 1    
    16    8    9 1    
    17    8   74 1    
    18    8   75 1    
    19    9   10 ar   
    20    9   14 ar   
    21   10   11 ar   
    22   10   76 1    
    23   11   12 ar   
    24   11   48 1    
    25   12   13 ar   
    26   12   77 1    
    27   13   14 ar   
    28   13   15 1    
    29   14   78 1    
    30   15   16 1    
    31   15   79 1    
    32   15   80 1    
    33   16   17 1    
    34   17   18 1    
    35   17   81 1    
    36   17   82 1    
    37   18   19 1    
    38   18   22 1    
    39   18   83 1    
    40   19   20 am   BACKBONE|DICT|INTERRES
    41   19   21 2    
    42   20   84 1    
    43   20   85 1    
    44   22   23 am   BACKBONE|DICT|INTERRES
    45   22   86 1    
    46   23   24 2    
    47   23   25 1    
    48   25   26 1    
    49   25   27 1    
    50   25   87 1    
    51   26   88 1    
    52   26   89 1    
    53   26   90 1    
    54   27   28 am   BACKBONE|DICT|INTERRES
    55   27   91 1    
    56   28   29 2    
    57   28   30 1    
    58   30   31 1    
    59   30   32 1    
    60   30   92 1    
    61   31   93 1    
    62   31   94 1    
    63   31   95 1    
    64   32   33 am   BACKBONE|DICT|INTERRES
    65   32   96 1    
    66   33   34 2    
    67   33   35 1    
    68   35   36 1    
    69   35   37 1    
    70   35   97 1    
    71   36   98 1    
    72   36   99 1    
    73   36  100 1    
    74   37   38 am   BACKBONE|DICT|INTERRES
    75   37  101 1    
    76   38   39 2    
    77   38   40 1    
    78   40   41 1    
    79   40   42 1    
    80   40  102 1    
    81   41  103 1    
    82   41  104 1    
    83   41  105 1    
    84   42   43 am   BACKBONE|DICT|INTERRES
    85   42  106 1    
    86   43   44 2    
    87   43   45 1    
    88   45   46 1    
    89   45   49 1    
    90   45  107 1    
    91   46   47 1    
    92   46  108 1    
    93   46  109 1    
    94   47   48 1    
    95   48  110 1    
    96   48  111 1    
    97   49   50 am   BACKBONE|DICT|INTERRES
    98   49  112 1    
    99   50   51 2    
   100   50   52 1    
   101   52   53 1    
   102   52   54 1    
   103   52  113 1    
   104   53  114 1    
   105   53  115 1    
   106   53  116 1    
   107   54   55 am   BACKBONE|DICT|INTERRES
   108   54  117 1    
   109   55   56 2    
   110   55   57 1    
   111   57   58 1    
   112   57   59 1    
   113   57  118 1    
   114   58  119 1    
   115   58  120 1    
   116   58  121 1    
   117   59   60 am   BACKBONE|DICT|INTERRES
   118   59  122 1    
   119   60   61 2    
   120   60   62 1    
   121   62   63 1    
   122   62   64 1    
   123   62  123 1    
   124   63  124 1    
   125   63  125 1    
   126   63  126 1    
   127   64   65 am   BACKBONE|DICT|INTERRES
   128   64  127 1    
   129   65   66 2    
@<TRIPOS>SUBSTRUCTURE
     1 UNK         1 GROUP             0       ****    0 ROOT    
