@<TRIPOS>MOLECULE
3R135
127   129    1
SMALL
USER_CHARGES


@<TRIPOS>ATOM
      1 CA        -79.1321   29.5942  -74.1706 C.3       0 UNK        -0.1998 
      2 C         -80.5121   29.4628  -74.8085 C.2       0 UNK         0.4909 
      3 O         -80.7439   30.0613  -75.8571 O.2       0 UNK        -0.5240 
      4 N         -81.4608   28.7066  -74.2404 N.am      1 UNK        -0.4739 
      5 CA        -81.3635   27.8784  -73.0330 C.3       1 UNK         0.0864 
      6 C6        -82.1869   28.4533  -71.8476 C.3       11 UNK        -0.0881 
      7 S7        -81.6780   30.1328  -71.3401 S.3       11 UNK        -0.2682 
      8 C8        -80.7441   29.8168  -69.8083 C.3       11 UNK         0.0289 
      9 C9        -79.3420   29.3054  -70.1010 C.ar      11 UNK        -0.0687 
     10 C10       -79.0648   27.9351  -70.0636 C.ar      11 UNK        -0.0823 
     11 C11       -77.7815   27.4668  -70.3607 C.ar      11 UNK        -0.0830 
     12 C12       -76.7658   28.3779  -70.6576 C.ar      11 UNK        -0.1021 
     13 C13       -77.0352   29.7455  -70.7164 C.ar      11 UNK        -0.0753 
     14 C14       -78.3227   30.2072  -70.4272 C.ar      11 UNK        -0.0933 
     15 C15       -75.9343   30.7064  -71.1297 C.3       11 UNK         0.0166 
     16 S16       -75.5642   30.5356  -72.9046 S.3       11 UNK        -0.2615 
     17 C17       -74.1826   31.7156  -73.0800 C.3       11 UNK        -0.0865 
     18 CA        -72.8010   31.0600  -73.3513 C.3       10 UNK         0.0862 
     19 C         -72.2053   30.3067  -72.1252 C.2       10 UNK         0.5551 
     20 N         -71.5495   29.1649  -72.3004 N.am      10 UNK        -0.7319 
     21 O         -72.3131   30.7785  -70.9960 O.2       10 UNK        -0.5018 
     22 N         -72.8097   30.2610  -74.5879 N.am      10 UNK        -0.4509 
     23 C         -71.9030   30.3575  -75.5663 C.2       10 UNK         0.4899 
     24 O         -70.9883   31.1838  -75.5775 O.2       10 UNK        -0.4839 
     25 CA        -72.0412   29.3457  -76.7195 C.3       9 UNK         0.0222 
     26 CB        -70.8900   29.4431  -77.7422 C.3       9 UNK        -0.1966 
     27 N         -72.1929   27.9556  -76.2725 N.am      9 UNK        -0.4218 
     28 C         -71.3879   27.2584  -75.4539 C.2       9 UNK         0.5020 
     29 O         -70.4403   27.7519  -74.8410 O.2       9 UNK        -0.5274 
     30 CA        -71.6751   25.7536  -75.2727 C.3       8 UNK         0.0270 
     31 CB        -72.2093   25.4697  -73.8585 C.3       8 UNK        -0.1976 
     32 N         -72.6004   25.1995  -76.2671 N.am      8 UNK        -0.4313 
     33 C         -72.3131   25.0109  -77.5635 C.2       8 UNK         0.5041 
     34 O         -71.1970   25.1955  -78.0501 O.2       8 UNK        -0.5577 
     35 CA        -73.4739   24.5886  -78.4833 C.3       7 UNK         0.0284 
     36 CB        -73.6261   23.0595  -78.5029 C.3       7 UNK        -0.1958 
     37 N         -74.7519   25.2135  -78.1226 N.am      7 UNK        -0.4454 
     38 C         -74.9933   26.5330  -78.1687 C.2       7 UNK         0.5089 
     39 O         -74.1802   27.3628  -78.5736 O.2       7 UNK        -0.5125 
     40 CA        -76.3403   27.0202  -77.6096 C.3       6 UNK         0.0408 
     41 CB        -77.4682   26.8311  -78.6352 C.3       6 UNK        -0.1791 
     42 N         -76.6932   26.3543  -76.3558 N.am      6 UNK        -0.4762 
     43 C         -76.0030   26.4603  -75.2101 C.2       6 UNK         0.5007 
     44 O         -75.0304   27.2003  -75.0630 O.2       6 UNK        -0.5032 
     45 CA        -76.4572   25.5537  -74.0490 C.3       5 UNK         0.0783 
     46 C46       -77.6263   26.2103  -73.2849 C.3       11 UNK        -0.0857 
     47 S47       -78.2596   25.2054  -71.8942 S.3       11 UNK        -0.2512 
     48 C48       -77.4962   25.9753  -70.4283 C.3       11 UNK         0.0225 
     49 N         -76.7914   24.2097  -74.5266 N.am      5 UNK        -0.4615 
     50 C         -75.9060   23.3301  -75.0095 C.2       4 UNK         0.5053 
     51 O         -74.6984   23.5499  -75.0852 O.2       4 UNK        -0.5105 
     52 CA        -76.4702   21.9962  -75.5263 C.3       4 UNK         0.0263 
     53 CB        -76.6478   21.0022  -74.3678 C.3       4 UNK        -0.1981 
     54 N         -77.7434   22.1592  -76.2337 N.am      4 UNK        -0.4224 
     55 C         -77.8841   22.8091  -77.3986 C.2       3 UNK         0.4895 
     56 O         -76.9456   23.2963  -78.0282 O.2       3 UNK        -0.5091 
     57 CA        -79.3216   22.9947  -77.9182 C.3       3 UNK         0.0250 
     58 CB        -79.7859   21.7478  -78.6876 C.3       3 UNK        -0.1996 
     59 N         -80.2866   23.3125  -76.8569 N.am      3 UNK        -0.4254 
     60 C         -80.2113   24.3983  -76.0754 C.2       2 UNK         0.5004 
     61 O         -79.3267   25.2533  -76.1844 O.2       2 UNK        -0.5226 
     62 CA        -81.2555   24.5337  -74.9581 C.3       2 UNK         0.0269 
     63 CB        -81.0574   23.4268  -73.8998 C.3       2 UNK        -0.1926 
     64 N         -81.0811   25.8618  -74.3728 N.am      2 UNK        -0.4687 
     65 C         -81.8091   26.4543  -73.4212 C.2       1 UNK         0.5165 
     66 O         -82.8041   25.9442  -72.9035 O.2       1 UNK        -0.5079 
     67 H67       -79.1830   29.6549  -73.0855 H         1 UNK         0.0900 
     68 H68       -78.4990   28.7557  -74.4537 H         1 UNK         0.0900 
     69 H69       -78.6433   30.5052  -74.5154 H         1 UNK         0.0900 
     70 H70       -82.3534   28.6428  -74.7103 H         1 UNK         0.2959 
     71 H71       -80.3288   27.7780  -72.7042 H         1 UNK         0.1079 
     72 H72       -82.1280   27.7865  -70.9855 H         1 UNK         0.0837 
     73 H73       -83.2448   28.5021  -72.1126 H         1 UNK         0.0837 
     74 H74       -81.2906   29.1179  -69.1733 H         1 UNK         0.0685 
     75 H75       -80.6774   30.7477  -69.2431 H         1 UNK         0.0685 
     76 H76       -79.8522   27.2296  -69.8358 H         1 UNK         0.1434 
     77 H77       -75.7736   28.0221  -70.9012 H         1 UNK         0.1329 
     78 H78       -78.5400   31.2655  -70.4773 H         1 UNK         0.1335 
     79 H79       -75.0365   30.5013  -70.5451 H         1 UNK         0.0680 
     80 H80       -76.2206   31.7374  -70.9160 H         1 UNK         0.0680 
     81 H81       -74.1312   32.3640  -72.2034 H         1 UNK         0.1032 
     82 H82       -74.4274   32.3815  -73.9087 H         1 UNK         0.1032 
     83 H83       -72.1142   31.8968  -73.4883 H         1 UNK         0.0461 
     84 H84       -71.1599   28.6970  -71.4980 H         1 UNK         0.3453 
     85 H85       -71.3746   28.8029  -73.2291 H         1 UNK         0.3453 
     86 H86       -73.5153   29.5376  -74.6380 H         1 UNK         0.2984 
     87 H87       -72.9658   29.6006  -77.2393 H         1 UNK         0.0554 
     88 H88       -70.8233   30.4462  -78.1652 H         1 UNK         0.0847 
     89 H89       -71.0400   28.7520  -78.5718 H         1 UNK         0.0847 
     90 H90       -69.9256   29.2151  -77.2865 H         1 UNK         0.0847 
     91 H91       -72.9705   27.4593  -76.6904 H         1 UNK         0.3141 
     92 H92       -70.7216   25.2325  -75.3813 H         1 UNK         0.0743 
     93 H93       -71.4993   25.8012  -73.0997 H         1 UNK         0.0784 
     94 H94       -73.1491   25.9868  -73.6683 H         1 UNK         0.0784 
     95 H95       -72.3745   24.4036  -73.7020 H         1 UNK         0.0784 
     96 H96       -73.5188   24.9241  -75.9309 H         1 UNK         0.3213 
     97 H97       -73.2244   24.9161  -79.4948 H         1 UNK         0.0855 
     98 H98       -73.8838   22.6656  -77.5200 H         1 UNK         0.0814 
     99 H99       -72.6968   22.5797  -78.8126 H         1 UNK         0.0814 
    100 H100      -74.4014   22.7467  -79.2025 H         1 UNK         0.0814 
    101 H101      -75.5042   24.5903  -77.8399 H         1 UNK         0.3105 
    102 H102      -76.2489   28.0884  -77.4014 H         1 UNK         0.0547 
    103 H103      -78.4139   27.2230  -78.2601 H         1 UNK         0.0837 
    104 H104      -77.6189   25.7809  -78.8846 H         1 UNK         0.0837 
    105 H105      -77.2429   27.3578  -79.5633 H         1 UNK         0.0837 
    106 H106      -77.5246   25.7673  -76.3692 H         1 UNK         0.3020 
    107 H107      -75.6132   25.4615  -73.3618 H         1 UNK         0.1245 
    108 H108      -78.4616   26.3808  -73.9607 H         1 UNK         0.0781 
    109 H109      -77.3334   27.2003  -72.9409 H         1 UNK         0.0781 
    110 H110      -76.4221   25.7838  -70.4454 H         1 UNK         0.0836 
    111 H111      -77.8794   25.4896  -69.5299 H         1 UNK         0.0836 
    112 H112      -77.7691   23.9642  -74.5147 H         1 UNK         0.3022 
    113 H113      -75.7454   21.5780  -76.2279 H         1 UNK         0.0747 
    114 H114      -76.9750   20.0268  -74.7284 H         1 UNK         0.0793 
    115 H115      -75.7062   20.8505  -73.8381 H         1 UNK         0.0793 
    116 H116      -77.3786   21.3541  -73.6383 H         1 UNK         0.0793 
    117 H117      -78.5683   21.7837  -75.7895 H         1 UNK         0.3047 
    118 H118      -79.3089   23.8370  -78.6133 H         1 UNK         0.0822 
    119 H119      -80.7626   21.9051  -79.1455 H         1 UNK         0.0807 
    120 H120      -79.8548   20.8725  -78.0405 H         1 UNK         0.0807 
    121 H121      -79.0894   21.5047  -79.4915 H         1 UNK         0.0807 
    122 H122      -81.0399   22.6547  -76.7140 H         1 UNK         0.2946 
    123 H123      -82.2541   24.4673  -75.3946 H         1 UNK         0.1144 
    124 H124      -80.0566   23.4533  -73.4693 H         1 UNK         0.0793 
    125 H125      -81.1988   22.4356  -74.3315 H         1 UNK         0.0793 
    126 H126      -81.7717   23.5137  -73.0816 H         1 UNK         0.0793 
    127 H127      -80.3177   26.3700  -74.8038 H         1 UNK         0.2896 
@<TRIPOS>BOND
     1    1    2 1    
     2    1   67 1    
     3    1   68 1    
     4    1   69 1    
     5    2    3 2    
     6    2    4 am   BACKBONE|DICT|INTERRES
     7    4    5 1    
     8    4   70 1    
     9    5    6 1    
    10    5   65 1    
    11    5   71 1    
    12    6    7 1    
    13    6   72 1    
    14    6   73 1    
    15    7    8 1    
    16    8    9 1    
    17    8   74 1    
    18    8   75 1    
    19    9   10 ar   
    20    9   14 ar   
    21   10   11 ar   
    22   10   76 1    
    23   11   12 ar   
    24   11   48 1    
    25   12   13 ar   
    26   12   77 1    
    27   13   14 ar   
    28   13   15 1    
    29   14   78 1    
    30   15   16 1    
    31   15   79 1    
    32   15   80 1    
    33   16   17 1    
    34   17   18 1    
    35   17   81 1    
    36   17   82 1    
    37   18   19 1    
    38   18   22 1    
    39   18   83 1    
    40   19   20 am   BACKBONE|DICT|INTERRES
    41   19   21 2    
    42   20   84 1    
    43   20   85 1    
    44   22   23 am   BACKBONE|DICT|INTERRES
    45   22   86 1    
    46   23   24 2    
    47   23   25 1    
    48   25   26 1    
    49   25   27 1    
    50   25   87 1    
    51   26   88 1    
    52   26   89 1    
    53   26   90 1    
    54   27   28 am   BACKBONE|DICT|INTERRES
    55   27   91 1    
    56   28   29 2    
    57   28   30 1    
    58   30   31 1    
    59   30   32 1    
    60   30   92 1    
    61   31   93 1    
    62   31   94 1    
    63   31   95 1    
    64   32   33 am   BACKBONE|DICT|INTERRES
    65   32   96 1    
    66   33   34 2    
    67   33   35 1    
    68   35   36 1    
    69   35   37 1    
    70   35   97 1    
    71   36   98 1    
    72   36   99 1    
    73   36  100 1    
    74   37   38 am   BACKBONE|DICT|INTERRES
    75   37  101 1    
    76   38   39 2    
    77   38   40 1    
    78   40   41 1    
    79   40   42 1    
    80   40  102 1    
    81   41  103 1    
    82   41  104 1    
    83   41  105 1    
    84   42   43 am   BACKBONE|DICT|INTERRES
    85   42  106 1    
    86   43   44 2    
    87   43   45 1    
    88   45   46 1    
    89   45   49 1    
    90   45  107 1    
    91   46   47 1    
    92   46  108 1    
    93   46  109 1    
    94   47   48 1    
    95   48  110 1    
    96   48  111 1    
    97   49   50 am   BACKBONE|DICT|INTERRES
    98   49  112 1    
    99   50   51 2    
   100   50   52 1    
   101   52   53 1    
   102   52   54 1    
   103   52  113 1    
   104   53  114 1    
   105   53  115 1    
   106   53  116 1    
   107   54   55 am   BACKBONE|DICT|INTERRES
   108   54  117 1    
   109   55   56 2    
   110   55   57 1    
   111   57   58 1    
   112   57   59 1    
   113   57  118 1    
   114   58  119 1    
   115   58  120 1    
   116   58  121 1    
   117   59   60 am   BACKBONE|DICT|INTERRES
   118   59  122 1    
   119   60   61 2    
   120   60   62 1    
   121   62   63 1    
   122   62   64 1    
   123   62  123 1    
   124   63  124 1    
   125   63  125 1    
   126   63  126 1    
   127   64   65 am   BACKBONE|DICT|INTERRES
   128   64  127 1    
   129   65   66 2    
@<TRIPOS>SUBSTRUCTURE
     1 UNK         1 GROUP             0       ****    0 ROOT    
