@<TRIPOS>MOLECULE
3R135
127   129    1
SMALL
USER_CHARGES


@<TRIPOS>ATOM
      1 CA        -84.4344   30.3745  -76.7803 C.3       0 UNK        -0.1998 
      2 C         -83.0491   29.7614  -76.9205 C.2       0 UNK         0.4909 
      3 O         -82.4906   29.7560  -78.0179 O.2       0 UNK        -0.5240 
      4 N         -82.4907   29.2477  -75.8160 N.am      1 UNK        -0.4739 
      5 CA        -81.1663   28.6121  -75.7594 C.3       1 UNK         0.0864 
      6 C6        -80.6849   28.4337  -74.2987 C.3       11 UNK        -0.0881 
      7 S7        -80.2957   30.0397  -73.5322 S.3       11 UNK        -0.2682 
      8 C8        -80.0924   29.5792  -71.7813 C.3       11 UNK         0.0289 
      9 C9        -78.7873   28.8425  -71.4965 C.ar      11 UNK        -0.0687 
     10 C10       -78.8083   27.5902  -70.8766 C.ar      11 UNK        -0.0823 
     11 C11       -77.6159   26.9462  -70.5332 C.ar      11 UNK        -0.0830 
     12 C12       -76.3930   27.5498  -70.8418 C.ar      11 UNK        -0.1021 
     13 C13       -76.3501   28.8029  -71.4726 C.ar      11 UNK        -0.0753 
     14 C14       -77.5560   29.4400  -71.7868 C.ar      11 UNK        -0.0933 
     15 C15       -75.0452   29.5349  -71.8050 C.3       11 UNK         0.0166 
     16 S16       -73.5028   28.6043  -71.4996 S.3       11 UNK        -0.2615 
     17 C17       -72.2390   29.8978  -71.7612 C.3       11 UNK        -0.0865 
     18 CA        -71.3338   29.6666  -73.0065 C.3       10 UNK         0.0862 
     19 C         -70.3095   28.5129  -72.8082 C.2       10 UNK         0.5551 
     20 N         -70.1666   27.5514  -73.7106 N.am      10 UNK        -0.7319 
     21 O         -69.5880   28.5080  -71.8132 O.2       10 UNK        -0.5018 
     22 N         -72.0860   29.6449  -74.2730 N.am      10 UNK        -0.4509 
     23 C         -72.6336   30.7355  -74.8289 C.2       10 UNK         0.4899 
     24 O         -72.5535   31.8612  -74.3331 O.2       10 UNK        -0.4839 
     25 CA        -73.4130   30.5467  -76.1465 C.3       9 UNK         0.0222 
     26 CB        -73.6845   31.8746  -76.8862 C.3       9 UNK        -0.1966 
     27 N         -72.8044   29.5635  -77.0470 N.am      9 UNK        -0.4218 
     28 C         -71.5733   29.5953  -77.5856 C.2       9 UNK         0.5020 
     29 O         -70.7923   30.5383  -77.4463 O.2       9 UNK        -0.5274 
     30 CA        -71.1322   28.3726  -78.4261 C.3       8 UNK         0.0270 
     31 CB        -69.6298   28.0612  -78.2517 C.3       8 UNK        -0.1976 
     32 N         -71.9368   27.1597  -78.2082 N.am      8 UNK        -0.4313 
     33 C         -72.1186   26.5203  -77.0448 C.2       8 UNK         0.5041 
     34 O         -71.5889   26.8560  -75.9828 O.2       8 UNK        -0.5577 
     35 CA        -73.1340   25.3651  -77.0477 C.3       7 UNK         0.0284 
     36 CB        -72.4193   24.0155  -76.8805 C.3       7 UNK        -0.1958 
     37 N         -74.1189   25.5304  -75.9755 N.am      7 UNK        -0.4454 
     38 C         -74.8921   26.6117  -75.7951 C.2       7 UNK         0.5089 
     39 O         -74.9438   27.5431  -76.6017 O.2       7 UNK        -0.5125 
     40 CA        -75.7305   26.6876  -74.5065 C.3       6 UNK         0.0408 
     41 CB        -77.0998   27.3322  -74.7539 C.3       6 UNK        -0.1791 
     42 N         -75.9317   25.3907  -73.8582 N.am      6 UNK        -0.4762 
     43 C         -75.0882   24.8285  -72.9801 C.2       6 UNK         0.5007 
     44 O         -74.0122   25.3273  -72.6552 O.2       6 UNK        -0.5032 
     45 CA        -75.4798   23.4586  -72.3880 C.3       5 UNK         0.0783 
     46 C46       -76.0373   23.5988  -70.9488 C.3       11 UNK        -0.0857 
     47 S47       -77.7676   24.1887  -70.8697 S.3       11 UNK        -0.2512 
     48 C48       -77.6587   25.6315  -69.7667 C.3       11 UNK         0.0225 
     49 N         -76.3789   22.6876  -73.2518 N.am      5 UNK        -0.4615 
     50 C         -76.0789   22.2293  -74.4731 C.2       4 UNK         0.5053 
     51 O         -74.9611   22.3276  -74.9790 O.2       4 UNK        -0.5105 
     52 CA        -77.2150   21.5703  -75.2780 C.3       4 UNK         0.0263 
     53 CB        -77.0642   20.0405  -75.2584 C.3       4 UNK        -0.1981 
     54 N         -78.5730   21.9247  -74.8408 N.am      4 UNK        -0.4224 
     55 C         -79.1015   23.1566  -74.8659 C.2       3 UNK         0.4895 
     56 O         -78.4694   24.1696  -75.1722 O.2       3 UNK        -0.5091 
     57 CA        -80.5707   23.2763  -74.4251 C.3       3 UNK         0.0250 
     58 CB        -80.6615   23.6923  -72.9490 C.3       3 UNK        -0.1996 
     59 N         -81.3053   24.2480  -75.2349 N.am      3 UNK        -0.4254 
     60 C         -81.6354   24.0832  -76.5233 C.2       2 UNK         0.5004 
     61 O         -81.3995   23.0571  -77.1632 O.2       2 UNK        -0.5226 
     62 CA        -82.3780   25.2428  -77.2155 C.3       2 UNK         0.0269 
     63 CB        -83.8736   24.9151  -77.3590 C.3       2 UNK        -0.1926 
     64 N         -82.2387   26.5341  -76.5323 N.am      2 UNK        -0.4687 
     65 C         -81.1169   27.2695  -76.5181 C.2       1 UNK         0.5165 
     66 O         -80.0758   26.9313  -77.0809 O.2       1 UNK        -0.5079 
     67 H67       -84.4118   31.4233  -77.0751 H         1 UNK         0.0900 
     68 H68       -85.1419   29.8541  -77.4254 H         1 UNK         0.0900 
     69 H69       -84.8041   30.3182  -75.7566 H         1 UNK         0.0900 
     70 H70       -82.9844   29.3091  -74.9367 H         1 UNK         0.2959 
     71 H71       -80.4616   29.2719  -76.2720 H         1 UNK         0.1079 
     72 H72       -79.7907   27.8149  -74.2528 H         1 UNK         0.0837 
     73 H73       -81.4392   27.9180  -73.7015 H         1 UNK         0.0837 
     74 H74       -80.9547   28.9907  -71.4641 H         1 UNK         0.0685 
     75 H75       -80.1102   30.4902  -71.1815 H         1 UNK         0.0685 
     76 H76       -79.7541   27.1281  -70.6286 H         1 UNK         0.1434 
     77 H77       -75.4810   27.0392  -70.5690 H         1 UNK         0.1329 
     78 H78       -77.5393   30.4154  -72.2541 H         1 UNK         0.1335 
     79 H79       -75.0168   30.4545  -71.2188 H         1 UNK         0.0680 
     80 H80       -75.0616   29.8317  -72.8548 H         1 UNK         0.0680 
     81 H81       -71.6311   29.9638  -70.8571 H         1 UNK         0.1032 
     82 H82       -72.7256   30.8707  -71.8374 H         1 UNK         0.1032 
     83 H83       -70.6833   30.5412  -73.0717 H         1 UNK         0.0461 
     84 H84       -69.4772   26.8394  -73.5339 H         1 UNK         0.3453 
     85 H85       -70.7435   27.4675  -74.5457 H         1 UNK         0.3453 
     86 H86       -72.1599   28.7493  -74.7379 H         1 UNK         0.2984 
     87 H87       -74.3805   30.1326  -75.8596 H         1 UNK         0.0554 
     88 H88       -74.2621   32.5588  -76.2634 H         1 UNK         0.0847 
     89 H89       -74.2565   31.7106  -77.7993 H         1 UNK         0.0847 
     90 H90       -72.7593   32.3847  -77.1562 H         1 UNK         0.0847 
     91 H91       -73.3690   28.7329  -77.1974 H         1 UNK         0.3141 
     92 H92       -71.2907   28.6569  -79.4674 H         1 UNK         0.0743 
     93 H93       -69.0140   28.9074  -78.5587 H         1 UNK         0.0784 
     94 H94       -69.3809   27.8396  -77.2132 H         1 UNK         0.0784 
     95 H95       -69.3279   27.2076  -78.8585 H         1 UNK         0.0784 
     96 H96       -72.4429   26.8271  -79.0183 H         1 UNK         0.3213 
     97 H97       -73.6752   25.3599  -77.9959 H         1 UNK         0.0855 
     98 H98       -71.8916   23.9556  -75.9275 H         1 UNK         0.0814 
     99 H99       -71.6839   23.8615  -77.6713 H         1 UNK         0.0814 
    100 H100      -73.1233   23.1843  -76.9266 H         1 UNK         0.0814 
    101 H101      -74.1331   24.8185  -75.2590 H         1 UNK         0.3105 
    102 H102      -75.1835   27.3382  -73.8225 H         1 UNK         0.0547 
    103 H103      -77.6843   26.7754  -75.4873 H         1 UNK         0.0837 
    104 H104      -76.9997   28.3556  -75.1171 H         1 UNK         0.0837 
    105 H105      -77.6667   27.3722  -73.8258 H         1 UNK         0.0837 
    106 H106      -76.7783   24.8920  -74.1136 H         1 UNK         0.3020 
    107 H107      -74.5480   22.8918  -72.3211 H         1 UNK         0.1245 
    108 H108      -75.3876   24.2365  -70.3465 H         1 UNK         0.0781 
    109 H109      -76.0105   22.6230  -70.4615 H         1 UNK         0.0781 
    110 H110      -76.7982   25.5456  -69.1019 H         1 UNK         0.0836 
    111 H111      -78.5316   25.6248  -69.1121 H         1 UNK         0.0836 
    112 H112      -77.3233   22.5781  -72.9123 H         1 UNK         0.3022 
    113 H113      -77.1078   21.9104  -76.3102 H         1 UNK         0.0747 
    114 H114      -77.7944   19.5600  -75.9099 H         1 UNK         0.0793 
    115 H115      -76.0755   19.7404  -75.6091 H         1 UNK         0.0793 
    116 H116      -77.1898   19.6353  -74.2535 H         1 UNK         0.0793 
    117 H117      -79.1604   21.1555  -74.5510 H         1 UNK         0.3047 
    118 H118      -81.0571   22.3055  -74.5432 H         1 UNK         0.0822 
    119 H119      -81.6976   23.7669  -72.6185 H         1 UNK         0.0807 
    120 H120      -80.1818   24.6562  -72.7713 H         1 UNK         0.0807 
    121 H121      -80.1725   22.9593  -72.3064 H         1 UNK         0.0807 
    122 H122      -81.5193   25.1328  -74.8016 H         1 UNK         0.2946 
    123 H123      -81.9515   25.3399  -78.2168 H         1 UNK         0.1144 
    124 H124      -84.3976   25.6887  -77.9208 H         1 UNK         0.0793 
    125 H125      -84.3605   24.8148  -76.3881 H         1 UNK         0.0793 
    126 H126      -84.0183   23.9755  -77.8944 H         1 UNK         0.0793 
    127 H127      -83.0563   26.8969  -76.0630 H         1 UNK         0.2896 
@<TRIPOS>BOND
     1    1    2 1    
     2    1   67 1    
     3    1   68 1    
     4    1   69 1    
     5    2    3 2    
     6    2    4 am   BACKBONE|DICT|INTERRES
     7    4    5 1    
     8    4   70 1    
     9    5    6 1    
    10    5   65 1    
    11    5   71 1    
    12    6    7 1    
    13    6   72 1    
    14    6   73 1    
    15    7    8 1    
    16    8    9 1    
    17    8   74 1    
    18    8   75 1    
    19    9   10 ar   
    20    9   14 ar   
    21   10   11 ar   
    22   10   76 1    
    23   11   12 ar   
    24   11   48 1    
    25   12   13 ar   
    26   12   77 1    
    27   13   14 ar   
    28   13   15 1    
    29   14   78 1    
    30   15   16 1    
    31   15   79 1    
    32   15   80 1    
    33   16   17 1    
    34   17   18 1    
    35   17   81 1    
    36   17   82 1    
    37   18   19 1    
    38   18   22 1    
    39   18   83 1    
    40   19   20 am   BACKBONE|DICT|INTERRES
    41   19   21 2    
    42   20   84 1    
    43   20   85 1    
    44   22   23 am   BACKBONE|DICT|INTERRES
    45   22   86 1    
    46   23   24 2    
    47   23   25 1    
    48   25   26 1    
    49   25   27 1    
    50   25   87 1    
    51   26   88 1    
    52   26   89 1    
    53   26   90 1    
    54   27   28 am   BACKBONE|DICT|INTERRES
    55   27   91 1    
    56   28   29 2    
    57   28   30 1    
    58   30   31 1    
    59   30   32 1    
    60   30   92 1    
    61   31   93 1    
    62   31   94 1    
    63   31   95 1    
    64   32   33 am   BACKBONE|DICT|INTERRES
    65   32   96 1    
    66   33   34 2    
    67   33   35 1    
    68   35   36 1    
    69   35   37 1    
    70   35   97 1    
    71   36   98 1    
    72   36   99 1    
    73   36  100 1    
    74   37   38 am   BACKBONE|DICT|INTERRES
    75   37  101 1    
    76   38   39 2    
    77   38   40 1    
    78   40   41 1    
    79   40   42 1    
    80   40  102 1    
    81   41  103 1    
    82   41  104 1    
    83   41  105 1    
    84   42   43 am   BACKBONE|DICT|INTERRES
    85   42  106 1    
    86   43   44 2    
    87   43   45 1    
    88   45   46 1    
    89   45   49 1    
    90   45  107 1    
    91   46   47 1    
    92   46  108 1    
    93   46  109 1    
    94   47   48 1    
    95   48  110 1    
    96   48  111 1    
    97   49   50 am   BACKBONE|DICT|INTERRES
    98   49  112 1    
    99   50   51 2    
   100   50   52 1    
   101   52   53 1    
   102   52   54 1    
   103   52  113 1    
   104   53  114 1    
   105   53  115 1    
   106   53  116 1    
   107   54   55 am   BACKBONE|DICT|INTERRES
   108   54  117 1    
   109   55   56 2    
   110   55   57 1    
   111   57   58 1    
   112   57   59 1    
   113   57  118 1    
   114   58  119 1    
   115   58  120 1    
   116   58  121 1    
   117   59   60 am   BACKBONE|DICT|INTERRES
   118   59  122 1    
   119   60   61 2    
   120   60   62 1    
   121   62   63 1    
   122   62   64 1    
   123   62  123 1    
   124   63  124 1    
   125   63  125 1    
   126   63  126 1    
   127   64   65 am   BACKBONE|DICT|INTERRES
   128   64  127 1    
   129   65   66 2    
@<TRIPOS>SUBSTRUCTURE
     1 UNK         1 GROUP             0       ****    0 ROOT    
