@<TRIPOS>MOLECULE
3R135
127   129    1
SMALL
USER_CHARGES


@<TRIPOS>ATOM
      1 CA        -85.6565   26.4202  -72.4055 C.3       0 UNK        -0.1998 
      2 C         -84.4676   27.1167  -73.0502 C.2       0 UNK         0.4909 
      3 O         -84.6562   28.0286  -73.8558 O.2       0 UNK        -0.5240 
      4 N         -83.2451   26.6959  -72.6989 N.am      1 UNK        -0.4739 
      5 CA        -81.9852   27.2429  -73.2210 C.3       1 UNK         0.0864 
      6 C6        -80.7714   26.7690  -72.3863 C.3       11 UNK        -0.0881 
      7 S7        -80.7434   27.5588  -70.7432 S.3       11 UNK        -0.2682 
      8 C8        -78.9897   27.3670  -70.2585 C.3       11 UNK         0.0289 
      9 C9        -77.9546   28.0965  -71.1221 C.ar      11 UNK        -0.0687 
     10 C10       -78.2960   29.0872  -72.0538 C.ar      11 UNK        -0.0823 
     11 C11       -77.3158   29.7070  -72.8353 C.ar      11 UNK        -0.0830 
     12 C12       -75.9742   29.3621  -72.6539 C.ar      11 UNK        -0.1021 
     13 C13       -75.6140   28.3924  -71.7152 C.ar      11 UNK        -0.0753 
     14 C14       -76.6061   27.7622  -70.9592 C.ar      11 UNK        -0.0933 
     15 C15       -74.1514   28.0307  -71.5203 C.3       11 UNK         0.0166 
     16 S16       -73.3503   29.1922  -70.3767 S.3       11 UNK        -0.2615 
     17 C17       -71.5949   28.7440  -70.5843 C.3       11 UNK        -0.0865 
     18 CA        -70.8244   29.7604  -71.4740 C.3       10 UNK         0.0862 
     19 C         -69.2807   29.6243  -71.3140 C.2       10 UNK         0.5551 
     20 N         -68.4930   29.6687  -72.3828 N.am      10 UNK        -0.7319 
     21 O         -68.7810   29.4941  -70.1992 O.2       10 UNK        -0.5018 
     22 N         -71.2537   29.6879  -72.8825 N.am      10 UNK        -0.4509 
     23 C         -71.9214   30.6328  -73.5572 C.2       10 UNK         0.4899 
     24 O         -72.3234   31.6811  -73.0518 O.2       10 UNK        -0.4839 
     25 CA        -72.1607   30.3957  -75.0640 C.3       9 UNK         0.0222 
     26 CB        -71.4767   31.4928  -75.8987 C.3       9 UNK        -0.1966 
     27 N         -71.6904   29.0860  -75.5332 N.am      9 UNK        -0.4218 
     28 C         -72.4021   27.9549  -75.4590 C.2       9 UNK         0.5020 
     29 O         -73.5461   27.8944  -75.0157 O.2       9 UNK        -0.5274 
     30 CA        -71.6858   26.6731  -75.8922 C.3       8 UNK         0.0270 
     31 CB        -70.8104   26.1335  -74.7429 C.3       8 UNK        -0.1976 
     32 N         -72.6617   25.6591  -76.2933 N.am      8 UNK        -0.4313 
     33 C         -72.3810   24.6255  -77.0983 C.2       8 UNK         0.5041 
     34 O         -71.2676   24.4272  -77.5887 O.2       8 UNK        -0.5577 
     35 CA        -73.5135   23.6366  -77.4187 C.3       7 UNK         0.0284 
     36 CB        -73.7216   22.6507  -76.2573 C.3       7 UNK        -0.1958 
     37 N         -74.7787   24.2903  -77.7538 N.am      7 UNK        -0.4454 
     38 C         -75.0029   24.9921  -78.8746 C.2       7 UNK         0.5089 
     39 O         -74.1678   25.1481  -79.7662 O.2       7 UNK        -0.5125 
     40 CA        -76.3940   25.6353  -79.0290 C.3       6 UNK         0.0408 
     41 CB        -77.3943   24.6377  -79.6329 C.3       6 UNK        -0.1791 
     42 N         -76.9142   26.1518  -77.7616 N.am      6 UNK        -0.4762 
     43 C         -76.3808   27.1904  -77.0995 C.2       6 UNK         0.5007 
     44 O         -75.4784   27.8904  -77.5600 O.2       6 UNK        -0.5032 
     45 CA        -76.9257   27.4747  -75.6849 C.3       5 UNK         0.0783 
     46 C46       -78.0276   28.5648  -75.6929 C.3       11 UNK        -0.0857 
     47 S47       -77.3092   30.2408  -75.5845 S.3       11 UNK        -0.2512 
     48 C48       -77.7152   30.7458  -73.8771 C.3       11 UNK         0.0225 
     49 N         -77.3614   26.2457  -75.0133 N.am      5 UNK        -0.4615 
     50 C         -76.5164   25.3344  -74.5087 C.2       4 UNK         0.5053 
     51 O         -75.2910   25.4221  -74.5674 O.2       4 UNK        -0.5105 
     52 CA        -77.1425   24.0840  -73.8708 C.3       4 UNK         0.0263 
     53 CB        -77.6093   24.3758  -72.4368 C.3       4 UNK        -0.1981 
     54 N         -78.2484   23.5349  -74.6600 N.am      4 UNK        -0.4224 
     55 C         -78.0984   23.0050  -75.8824 C.2       3 UNK         0.4895 
     56 O         -77.0182   22.9262  -76.4651 O.2       3 UNK        -0.5091 
     57 CA        -79.3647   22.5005  -76.5921 C.3       3 UNK         0.0250 
     58 CB        -79.6698   21.0515  -76.1802 C.3       3 UNK        -0.1996 
     59 N         -80.5557   23.3303  -76.3835 N.am      3 UNK        -0.4254 
     60 C         -80.6630   24.6308  -76.6929 C.2       2 UNK         0.5004 
     61 O         -79.7209   25.3230  -77.0817 O.2       2 UNK        -0.5226 
     62 CA        -82.0566   25.2614  -76.5295 C.3       2 UNK         0.0269 
     63 CB        -83.2070   24.2983  -76.8848 C.3       2 UNK        -0.1926 
     64 N         -82.2410   25.7529  -75.1649 N.am      2 UNK        -0.4687 
     65 C         -81.7649   26.9208  -74.7126 C.2       1 UNK         0.5165 
     66 O         -81.1725   27.7349  -75.4191 O.2       1 UNK        -0.5079 
     67 H67       -85.3453   25.6412  -71.7098 H         1 UNK         0.0900 
     68 H68       -86.2616   27.1418  -71.8571 H         1 UNK         0.0900 
     69 H69       -86.2825   25.9616  -73.1704 H         1 UNK         0.0900 
     70 H70       -83.1523   25.9646  -72.0080 H         1 UNK         0.2959 
     71 H71       -82.0442   28.3321  -73.1539 H         1 UNK         0.1079 
     72 H72       -80.7838   25.6849  -72.2601 H         1 UNK         0.0837 
     73 H73       -79.8381   27.0037  -72.8997 H         1 UNK         0.0837 
     74 H74       -78.8847   27.7218  -69.2325 H         1 UNK         0.0685 
     75 H75       -78.7583   26.3011  -70.2377 H         1 UNK         0.0685 
     76 H76       -79.3285   29.3744  -72.1891 H         1 UNK         0.1434 
     77 H77       -75.2089   29.8408  -73.2505 H         1 UNK         0.1329 
     78 H78       -76.3248   27.0103  -70.2344 H         1 UNK         0.1335 
     79 H79       -73.6353   28.0523  -72.4785 H         1 UNK         0.0680 
     80 H80       -74.0535   27.0132  -71.1389 H         1 UNK         0.0680 
     81 H81       -71.5049   27.7321  -70.9830 H         1 UNK         0.1032 
     82 H82       -71.1686   28.7063  -69.5800 H         1 UNK         0.1032 
     83 H83       -71.0378   30.7587  -71.0880 H         1 UNK         0.0461 
     84 H84       -67.4958   29.5858  -72.2600 H         1 UNK         0.3453 
     85 H85       -68.8742   29.8328  -73.2996 H         1 UNK         0.3453 
     86 H86       -70.9658   28.8608  -73.3819 H         1 UNK         0.2984 
     87 H87       -73.2375   30.4686  -75.2332 H         1 UNK         0.0554 
     88 H88       -71.8400   32.4827  -75.6187 H         1 UNK         0.0847 
     89 H89       -71.6807   31.3674  -76.9623 H         1 UNK         0.0847 
     90 H90       -70.3948   31.4930  -75.7607 H         1 UNK         0.0847 
     91 H91       -70.7551   29.0506  -75.9144 H         1 UNK         0.3141 
     92 H92       -71.0539   26.9137  -76.7500 H         1 UNK         0.0743 
     93 H93       -71.4111   25.8846  -73.8667 H         1 UNK         0.0784 
     94 H94       -70.2690   25.2355  -75.0407 H         1 UNK         0.0784 
     95 H95       -70.0643   26.8661  -74.4334 H         1 UNK         0.0784 
     96 H96       -73.5966   25.7818  -75.9099 H         1 UNK         0.3213 
     97 H97       -73.2029   23.0576  -78.2913 H         1 UNK         0.0855 
     98 H98       -74.0774   23.1524  -75.3573 H         1 UNK         0.0814 
     99 H99       -72.7890   22.1458  -76.0022 H         1 UNK         0.0814 
    100 H100      -74.4460   21.8791  -76.5180 H         1 UNK         0.0814 
    101 H101      -75.5509   24.1444  -77.1110 H         1 UNK         0.3105 
    102 H102      -76.2995   26.4759  -79.7197 H         1 UNK         0.0547 
    103 H103      -78.3770   25.0905  -79.7662 H         1 UNK         0.0837 
    104 H104      -77.5146   23.7551  -79.0055 H         1 UNK         0.0837 
    105 H105      -77.0579   24.2958  -80.6124 H         1 UNK         0.0837 
    106 H106      -77.7123   25.6714  -77.3574 H         1 UNK         0.3020 
    107 H107      -76.0843   27.8535  -75.1011 H         1 UNK         0.1245 
    108 H108      -78.7019   28.4297  -74.8477 H         1 UNK         0.0781 
    109 H109      -78.6613   28.4955  -76.5795 H         1 UNK         0.0781 
    110 H110      -78.7841   30.9579  -73.8234 H         1 UNK         0.0836 
    111 H111      -77.2070   31.6855  -73.6567 H         1 UNK         0.0836 
    112 H112      -78.3537   26.0635  -75.0002 H         1 UNK         0.3022 
    113 H113      -76.3639   23.3195  -73.8188 H         1 UNK         0.0747 
    114 H114      -77.9861   23.4769  -71.9487 H         1 UNK         0.0793 
    115 H115      -76.7843   24.7518  -71.8301 H         1 UNK         0.0793 
    116 H116      -78.3956   25.1276  -72.4139 H         1 UNK         0.0793 
    117 H117      -79.1710   23.5553  -74.2515 H         1 UNK         0.3047 
    118 H118      -79.1554   22.5074  -77.6636 H         1 UNK         0.0822 
    119 H119      -80.4919   20.6369  -76.7639 H         1 UNK         0.0807 
    120 H120      -79.9349   20.9770  -75.1248 H         1 UNK         0.0807 
    121 H121      -78.8036   20.4085  -76.3446 H         1 UNK         0.0807 
    122 H122      -81.3833   22.8515  -76.0595 H         1 UNK         0.2946 
    123 H123      -82.1054   26.1032  -77.2249 H         1 UNK         0.1144 
    124 H124      -83.3066   23.4817  -76.1692 H         1 UNK         0.0793 
    125 H125      -83.0601   23.8586  -77.8726 H         1 UNK         0.0793 
    126 H126      -84.1603   24.8269  -76.9106 H         1 UNK         0.0793 
    127 H127      -82.7245   25.1489  -74.5162 H         1 UNK         0.2896 
@<TRIPOS>BOND
     1    1    2 1    
     2    1   67 1    
     3    1   68 1    
     4    1   69 1    
     5    2    3 2    
     6    2    4 am   BACKBONE|DICT|INTERRES
     7    4    5 1    
     8    4   70 1    
     9    5    6 1    
    10    5   65 1    
    11    5   71 1    
    12    6    7 1    
    13    6   72 1    
    14    6   73 1    
    15    7    8 1    
    16    8    9 1    
    17    8   74 1    
    18    8   75 1    
    19    9   10 ar   
    20    9   14 ar   
    21   10   11 ar   
    22   10   76 1    
    23   11   12 ar   
    24   11   48 1    
    25   12   13 ar   
    26   12   77 1    
    27   13   14 ar   
    28   13   15 1    
    29   14   78 1    
    30   15   16 1    
    31   15   79 1    
    32   15   80 1    
    33   16   17 1    
    34   17   18 1    
    35   17   81 1    
    36   17   82 1    
    37   18   19 1    
    38   18   22 1    
    39   18   83 1    
    40   19   20 am   BACKBONE|DICT|INTERRES
    41   19   21 2    
    42   20   84 1    
    43   20   85 1    
    44   22   23 am   BACKBONE|DICT|INTERRES
    45   22   86 1    
    46   23   24 2    
    47   23   25 1    
    48   25   26 1    
    49   25   27 1    
    50   25   87 1    
    51   26   88 1    
    52   26   89 1    
    53   26   90 1    
    54   27   28 am   BACKBONE|DICT|INTERRES
    55   27   91 1    
    56   28   29 2    
    57   28   30 1    
    58   30   31 1    
    59   30   32 1    
    60   30   92 1    
    61   31   93 1    
    62   31   94 1    
    63   31   95 1    
    64   32   33 am   BACKBONE|DICT|INTERRES
    65   32   96 1    
    66   33   34 2    
    67   33   35 1    
    68   35   36 1    
    69   35   37 1    
    70   35   97 1    
    71   36   98 1    
    72   36   99 1    
    73   36  100 1    
    74   37   38 am   BACKBONE|DICT|INTERRES
    75   37  101 1    
    76   38   39 2    
    77   38   40 1    
    78   40   41 1    
    79   40   42 1    
    80   40  102 1    
    81   41  103 1    
    82   41  104 1    
    83   41  105 1    
    84   42   43 am   BACKBONE|DICT|INTERRES
    85   42  106 1    
    86   43   44 2    
    87   43   45 1    
    88   45   46 1    
    89   45   49 1    
    90   45  107 1    
    91   46   47 1    
    92   46  108 1    
    93   46  109 1    
    94   47   48 1    
    95   48  110 1    
    96   48  111 1    
    97   49   50 am   BACKBONE|DICT|INTERRES
    98   49  112 1    
    99   50   51 2    
   100   50   52 1    
   101   52   53 1    
   102   52   54 1    
   103   52  113 1    
   104   53  114 1    
   105   53  115 1    
   106   53  116 1    
   107   54   55 am   BACKBONE|DICT|INTERRES
   108   54  117 1    
   109   55   56 2    
   110   55   57 1    
   111   57   58 1    
   112   57   59 1    
   113   57  118 1    
   114   58  119 1    
   115   58  120 1    
   116   58  121 1    
   117   59   60 am   BACKBONE|DICT|INTERRES
   118   59  122 1    
   119   60   61 2    
   120   60   62 1    
   121   62   63 1    
   122   62   64 1    
   123   62  123 1    
   124   63  124 1    
   125   63  125 1    
   126   63  126 1    
   127   64   65 am   BACKBONE|DICT|INTERRES
   128   64  127 1    
   129   65   66 2    
@<TRIPOS>SUBSTRUCTURE
     1 UNK         1 GROUP             0       ****    0 ROOT    
