@<TRIPOS>MOLECULE
3R135
127   129    1
SMALL
USER_CHARGES


@<TRIPOS>ATOM
      1 CA        -82.7492   29.0683  -74.4145 C.3       0 UNK        -0.1998 
      2 C         -83.4915   27.7772  -74.0778 C.2       0 UNK         0.4909 
      3 O         -84.6873   27.6821  -74.3458 O.2       0 UNK        -0.5240 
      4 N         -82.8388   26.7563  -73.5031 N.am      1 UNK        -0.4739 
      5 CA        -81.4161   26.7072  -73.1349 C.3       1 UNK         0.0864 
      6 C6        -81.1797   25.9951  -71.7774 C.3       11 UNK        -0.0881 
      7 S7        -81.8370   26.9871  -70.3926 S.3       11 UNK        -0.2682 
      8 C8        -80.3243   27.4037  -69.4469 C.3       11 UNK         0.0289 
      9 C9        -79.2908   28.2550  -70.1903 C.ar      11 UNK        -0.0687 
     10 C10       -79.6656   29.2167  -71.1377 C.ar      11 UNK        -0.0823 
     11 C11       -78.6998   29.9653  -71.8189 C.ar      11 UNK        -0.0830 
     12 C12       -77.3526   29.8043  -71.4897 C.ar      11 UNK        -0.1021 
     13 C13       -76.9599   28.8572  -70.5435 C.ar      11 UNK        -0.0753 
     14 C14       -77.9312   28.0828  -69.9007 C.ar      11 UNK        -0.0933 
     15 C15       -75.4795   28.6533  -70.2638 C.3       11 UNK         0.0166 
     16 S16       -74.7053   27.8026  -71.6678 S.3       11 UNK        -0.2615 
     17 C17       -72.9391   27.7946  -71.2211 C.3       11 UNK        -0.0865 
     18 CA        -72.0903   28.7792  -72.0706 C.3       10 UNK         0.0862 
     19 C         -70.5881   28.6728  -71.6701 C.2       10 UNK         0.5551 
     20 N         -69.7002   28.1758  -72.5251 N.am      10 UNK        -0.7319 
     21 O         -70.2251   29.0483  -70.5582 O.2       10 UNK        -0.5018 
     22 N         -72.3505   28.6318  -73.5125 N.am      10 UNK        -0.4509 
     23 C         -71.9535   29.4886  -74.4629 C.2       10 UNK         0.4899 
     24 O         -71.4120   30.5691  -74.2232 O.2       10 UNK        -0.4839 
     25 CA        -72.1932   29.0602  -75.9261 C.3       9 UNK         0.0222 
     26 CB        -71.1740   29.6845  -76.9026 C.3       9 UNK        -0.1966 
     27 N         -72.2622   27.6030  -76.1080 N.am      9 UNK        -0.4218 
     28 C         -71.3062   26.7032  -75.8255 C.2       9 UNK         0.5020 
     29 O         -70.1974   27.0026  -75.3784 O.2       9 UNK        -0.5274 
     30 CA        -71.6445   25.2172  -76.0260 C.3       8 UNK         0.0270 
     31 CB        -71.7754   24.5166  -74.6611 C.3       8 UNK        -0.1976 
     32 N         -72.8864   25.0130  -76.7812 N.am      8 UNK        -0.4313 
     33 C         -72.9553   24.4689  -78.0032 C.2       8 UNK         0.5041 
     34 O         -71.9701   24.1255  -78.6585 O.2       8 UNK        -0.5577 
     35 CA        -74.3572   24.2371  -78.5943 C.3       7 UNK         0.0284 
     36 CB        -74.9626   22.9436  -78.0325 C.3       7 UNK        -0.1958 
     37 N         -75.2946   25.3434  -78.3846 N.am      7 UNK        -0.4454 
     38 C         -75.1968   26.5340  -78.9939 C.2       7 UNK         0.5089 
     39 O         -74.2572   26.8599  -79.7191 O.2       7 UNK        -0.5125 
     40 CA        -76.3458   27.5258  -78.7684 C.3       6 UNK         0.0408 
     41 CB        -77.5354   27.2006  -79.6872 C.3       6 UNK        -0.1791 
     42 N         -76.7803   27.5148  -77.3713 N.am      6 UNK        -0.4762 
     43 C         -76.3928   28.4223  -76.4637 C.2       6 UNK         0.5007 
     44 O         -75.6773   29.3885  -76.7263 O.2       6 UNK        -0.5032 
     45 CA        -76.8716   28.2128  -75.0138 C.3       5 UNK         0.0783 
     46 C46       -78.2579   28.8797  -74.7890 C.3       11 UNK        -0.0857 
     47 S47       -78.1446   30.6785  -74.4805 S.3       11 UNK        -0.2512 
     48 C48       -79.1110   30.9121  -72.9415 C.3       11 UNK         0.0225 
     49 N         -76.8702   26.8033  -74.5973 N.am      5 UNK        -0.4615 
     50 C         -75.8093   25.9827  -74.5718 C.2       4 UNK         0.5053 
     51 O         -74.7037   26.2876  -75.0171 O.2       4 UNK        -0.5105 
     52 CA        -76.0113   24.5758  -73.9846 C.3       4 UNK         0.0263 
     53 CB        -76.0319   24.6027  -72.4488 C.3       4 UNK        -0.1981 
     54 N         -77.2520   23.9855  -74.4780 N.am      4 UNK        -0.4224 
     55 C         -77.3606   22.7804  -75.0511 C.2       3 UNK         0.4895 
     56 O         -76.4563   21.9449  -75.0619 O.2       3 UNK        -0.5091 
     57 CA        -78.6926   22.4352  -75.7503 C.3       3 UNK         0.0250 
     58 CB        -79.4680   21.3860  -74.9364 C.3       3 UNK        -0.1996 
     59 N         -79.5768   23.5770  -76.0124 N.am      3 UNK        -0.4254 
     60 C         -79.2778   24.6660  -76.7350 C.2       2 UNK         0.5004 
     61 O         -78.1971   24.8534  -77.2988 O.2       2 UNK        -0.5226 
     62 CA        -80.3350   25.7838  -76.7492 C.3       2 UNK         0.0269 
     63 CB        -81.3377   25.5555  -77.8904 C.3       2 UNK        -0.1926 
     64 N         -81.0680   25.9981  -75.4877 N.am      2 UNK        -0.4687 
     65 C         -80.5333   26.1336  -74.2616 C.2       1 UNK         0.5165 
     66 O         -79.3589   25.8728  -74.0082 O.2       1 UNK        -0.5079 
     67 H67       -83.3833   29.7283  -75.0064 H         1 UNK         0.0900 
     68 H68       -81.8479   28.8746  -74.9951 H         1 UNK         0.0900 
     69 H69       -82.4777   29.6007  -73.5034 H         1 UNK         0.0900 
     70 H70       -83.3628   25.9194  -73.2876 H         1 UNK         0.2959 
     71 H71       -81.0444   27.7228  -73.0129 H         1 UNK         0.1079 
     72 H72       -81.6522   25.0115  -71.7679 H         1 UNK         0.0837 
     73 H73       -80.1175   25.8199  -71.5943 H         1 UNK         0.0837 
     74 H74       -80.6216   27.9408  -68.5455 H         1 UNK         0.0685 
     75 H75       -79.8691   26.4707  -69.1107 H         1 UNK         0.0685 
     76 H76       -80.7117   29.3681  -71.3629 H         1 UNK         0.1434 
     77 H77       -76.5993   30.3825  -72.0076 H         1 UNK         0.1329 
     78 H78       -77.6263   27.3421  -69.1741 H         1 UNK         0.1335 
     79 H79       -74.9965   29.6190  -70.1074 H         1 UNK         0.0680 
     80 H80       -75.3297   28.0699  -69.3540 H         1 UNK         0.0680 
     81 H81       -72.8348   28.0181  -70.1575 H         1 UNK         0.1032 
     82 H82       -72.5739   26.7739  -71.3499 H         1 UNK         0.1032 
     83 H83       -72.4037   29.7898  -71.8015 H         1 UNK         0.0461 
     84 H84       -69.9814   27.8659  -73.4479 H         1 UNK         0.3453 
     85 H85       -68.7329   28.1156  -72.2503 H         1 UNK         0.3453 
     86 H86       -72.8245   27.7852  -73.7934 H         1 UNK         0.2984 
     87 H87       -73.1754   29.4473  -76.1912 H         1 UNK         0.0554 
     88 H88       -71.3707   29.3783  -77.9300 H         1 UNK         0.0847 
     89 H89       -70.1505   29.3997  -76.6569 H         1 UNK         0.0847 
     90 H90       -71.2225   30.7738  -76.8769 H         1 UNK         0.0847 
     91 H91       -73.1655   27.2453  -76.3878 H         1 UNK         0.3141 
     92 H92       -70.7987   24.7708  -76.5528 H         1 UNK         0.0743 
     93 H93       -70.8515   24.6025  -74.0873 H         1 UNK         0.0784 
     94 H94       -72.5737   24.9473  -74.0559 H         1 UNK         0.0784 
     95 H95       -71.9828   23.4531  -74.7807 H         1 UNK         0.0784 
     96 H96       -73.7415   25.2917  -76.3071 H         1 UNK         0.3213 
     97 H97       -74.2403   24.1083  -79.6728 H         1 UNK         0.0855 
     98 H98       -75.0439   22.9870  -76.9477 H         1 UNK         0.0814 
     99 H99       -74.3379   22.0831  -78.2756 H         1 UNK         0.0814 
    100 H100      -75.9555   22.7514  -78.4399 H         1 UNK         0.0814 
    101 H101      -76.1324   25.1423  -77.8508 H         1 UNK         0.3105 
    102 H102      -75.9860   28.5192  -79.0448 H         1 UNK         0.0547 
    103 H103      -78.3549   27.9035  -79.5379 H         1 UNK         0.0837 
    104 H104      -77.2419   27.2646  -80.7358 H         1 UNK         0.0837 
    105 H105      -77.9226   26.1952  -79.5229 H         1 UNK         0.0837 
    106 H106      -77.3339   26.7197  -77.0736 H         1 UNK         0.3020 
    107 H107      -76.1428   28.7066  -74.3665 H         1 UNK         0.1245 
    108 H108      -78.7418   28.4259  -73.9272 H         1 UNK         0.0781 
    109 H109      -78.9348   28.7025  -75.6268 H         1 UNK         0.0781 
    110 H110      -78.9882   31.9405  -72.5997 H         1 UNK         0.0836 
    111 H111      -80.1687   30.7912  -73.1796 H         1 UNK         0.0836 
    112 H112      -77.7546   26.4622  -74.2266 H         1 UNK         0.3022 
    113 H113      -75.1588   23.9717  -74.3027 H         1 UNK         0.0747 
    114 H114      -75.0709   24.9340  -72.0555 H         1 UNK         0.0793 
    115 H115      -76.2202   23.6106  -72.0385 H         1 UNK         0.0793 
    116 H116      -76.7991   25.2761  -72.0632 H         1 UNK         0.0793 
    117 H117      -78.0695   24.5887  -74.4756 H         1 UNK         0.3047 
    118 H118      -78.4344   21.9993  -76.7176 H         1 UNK         0.0822 
    119 H119      -78.8560   20.5018  -74.7522 H         1 UNK         0.0807 
    120 H120      -80.3614   21.0525  -75.4648 H         1 UNK         0.0807 
    121 H121      -79.7758   21.7769  -73.9657 H         1 UNK         0.0807 
    122 H122      -80.4831   23.5512  -75.5682 H         1 UNK         0.2946 
    123 H123      -79.8003   26.7115  -76.9613 H         1 UNK         0.1144 
    124 H124      -80.8227   25.4136  -78.8421 H         1 UNK         0.0793 
    125 H125      -82.0039   26.4098  -78.0116 H         1 UNK         0.0793 
    126 H126      -81.9527   24.6715  -77.7170 H         1 UNK         0.0793 
    127 H127      -82.0552   26.1921  -75.5797 H         1 UNK         0.2896 
@<TRIPOS>BOND
     1    1    2 1    
     2    1   67 1    
     3    1   68 1    
     4    1   69 1    
     5    2    3 2    
     6    2    4 am   BACKBONE|DICT|INTERRES
     7    4    5 1    
     8    4   70 1    
     9    5    6 1    
    10    5   65 1    
    11    5   71 1    
    12    6    7 1    
    13    6   72 1    
    14    6   73 1    
    15    7    8 1    
    16    8    9 1    
    17    8   74 1    
    18    8   75 1    
    19    9   10 ar   
    20    9   14 ar   
    21   10   11 ar   
    22   10   76 1    
    23   11   12 ar   
    24   11   48 1    
    25   12   13 ar   
    26   12   77 1    
    27   13   14 ar   
    28   13   15 1    
    29   14   78 1    
    30   15   16 1    
    31   15   79 1    
    32   15   80 1    
    33   16   17 1    
    34   17   18 1    
    35   17   81 1    
    36   17   82 1    
    37   18   19 1    
    38   18   22 1    
    39   18   83 1    
    40   19   20 am   BACKBONE|DICT|INTERRES
    41   19   21 2    
    42   20   84 1    
    43   20   85 1    
    44   22   23 am   BACKBONE|DICT|INTERRES
    45   22   86 1    
    46   23   24 2    
    47   23   25 1    
    48   25   26 1    
    49   25   27 1    
    50   25   87 1    
    51   26   88 1    
    52   26   89 1    
    53   26   90 1    
    54   27   28 am   BACKBONE|DICT|INTERRES
    55   27   91 1    
    56   28   29 2    
    57   28   30 1    
    58   30   31 1    
    59   30   32 1    
    60   30   92 1    
    61   31   93 1    
    62   31   94 1    
    63   31   95 1    
    64   32   33 am   BACKBONE|DICT|INTERRES
    65   32   96 1    
    66   33   34 2    
    67   33   35 1    
    68   35   36 1    
    69   35   37 1    
    70   35   97 1    
    71   36   98 1    
    72   36   99 1    
    73   36  100 1    
    74   37   38 am   BACKBONE|DICT|INTERRES
    75   37  101 1    
    76   38   39 2    
    77   38   40 1    
    78   40   41 1    
    79   40   42 1    
    80   40  102 1    
    81   41  103 1    
    82   41  104 1    
    83   41  105 1    
    84   42   43 am   BACKBONE|DICT|INTERRES
    85   42  106 1    
    86   43   44 2    
    87   43   45 1    
    88   45   46 1    
    89   45   49 1    
    90   45  107 1    
    91   46   47 1    
    92   46  108 1    
    93   46  109 1    
    94   47   48 1    
    95   48  110 1    
    96   48  111 1    
    97   49   50 am   BACKBONE|DICT|INTERRES
    98   49  112 1    
    99   50   51 2    
   100   50   52 1    
   101   52   53 1    
   102   52   54 1    
   103   52  113 1    
   104   53  114 1    
   105   53  115 1    
   106   53  116 1    
   107   54   55 am   BACKBONE|DICT|INTERRES
   108   54  117 1    
   109   55   56 2    
   110   55   57 1    
   111   57   58 1    
   112   57   59 1    
   113   57  118 1    
   114   58  119 1    
   115   58  120 1    
   116   58  121 1    
   117   59   60 am   BACKBONE|DICT|INTERRES
   118   59  122 1    
   119   60   61 2    
   120   60   62 1    
   121   62   63 1    
   122   62   64 1    
   123   62  123 1    
   124   63  124 1    
   125   63  125 1    
   126   63  126 1    
   127   64   65 am   BACKBONE|DICT|INTERRES
   128   64  127 1    
   129   65   66 2    
@<TRIPOS>SUBSTRUCTURE
     1 UNK         1 GROUP             0       ****    0 ROOT    
