@<TRIPOS>MOLECULE
3R135
127   129    1
SMALL
USER_CHARGES


@<TRIPOS>ATOM
      1 CA        -81.4002   23.2762  -74.4313 C.3       0 UNK        -0.1998 
      2 C         -81.9752   24.5654  -73.8636 C.2       0 UNK         0.4909 
      3 O         -83.1525   24.6077  -73.5056 O.2       0 UNK        -0.5240 
      4 N         -81.1523   25.6168  -73.7962 N.am      1 UNK        -0.4739 
      5 CA        -81.5134   26.9582  -73.3201 C.3       1 UNK         0.0864 
      6 C6        -80.4685   27.4979  -72.3094 C.3       11 UNK        -0.0881 
      7 S7        -80.4287   26.5082  -70.7791 S.3       11 UNK        -0.2682 
      8 C8        -79.2722   27.4803  -69.7635 C.3       11 UNK         0.0289 
      9 C9        -77.8449   27.3789  -70.2806 C.ar      11 UNK        -0.0687 
     10 C10       -77.1392   26.1811  -70.1443 C.ar      11 UNK        -0.0823 
     11 C11       -75.8318   26.0658  -70.6249 C.ar      11 UNK        -0.0830 
     12 C12       -75.2237   27.1708  -71.2261 C.ar      11 UNK        -0.1021 
     13 C13       -75.9106   28.3818  -71.3552 C.ar      11 UNK        -0.0753 
     14 C14       -77.2236   28.4787  -70.8796 C.ar      11 UNK        -0.0933 
     15 C15       -75.1971   29.5906  -71.9476 C.3       11 UNK         0.0166 
     16 S16       -76.1903   30.4960  -73.1771 S.3       11 UNK        -0.2615 
     17 C17       -75.0256   31.8475  -73.5766 C.3       11 UNK        -0.0865 
     18 CA        -74.6705   31.9381  -75.0880 C.3       10 UNK         0.0862 
     19 C         -73.7374   33.1446  -75.4103 C.2       10 UNK         0.5551 
     20 N         -72.8332   33.0412  -76.3767 N.am      10 UNK        -0.7319 
     21 O         -73.8536   34.2036  -74.7980 O.2       10 UNK        -0.5018 
     22 N         -74.2470   30.6552  -75.6754 N.am      10 UNK        -0.4509 
     23 C         -73.1871   29.9133  -75.3384 C.2       10 UNK         0.4899 
     24 O         -72.3864   30.2157  -74.4528 O.2       10 UNK        -0.4839 
     25 CA        -73.0110   28.6326  -76.1754 C.3       9 UNK         0.0222 
     26 CB        -72.2263   28.9163  -77.4714 C.3       9 UNK        -0.1966 
     27 N         -72.4432   27.5008  -75.4356 N.am      9 UNK        -0.4218 
     28 C         -71.2054   27.3263  -74.9568 C.2       9 UNK         0.5020 
     29 O         -70.2720   28.1154  -75.1101 O.2       9 UNK        -0.5274 
     30 CA        -70.9482   26.0139  -74.1940 C.3       8 UNK         0.0270 
     31 CB        -71.5818   26.0449  -72.7889 C.3       8 UNK        -0.1976 
     32 N         -71.3234   24.7933  -74.9255 N.am      8 UNK        -0.4313 
     33 C         -72.5431   24.3609  -75.2745 C.2       8 UNK         0.5041 
     34 O         -73.5939   24.9875  -75.0712 O.2       8 UNK        -0.5577 
     35 CA        -72.5975   22.9869  -75.9615 C.3       7 UNK         0.0284 
     36 CB        -72.1767   21.8735  -74.9782 C.3       7 UNK        -0.1958 
     37 N         -73.9761   22.7986  -76.3846 N.am      7 UNK        -0.4454 
     38 C         -74.5399   21.7830  -77.0452 C.2       7 UNK         0.5089 
     39 O         -73.9114   20.8437  -77.5353 O.2       7 UNK        -0.5125 
     40 CA        -76.0800   21.8442  -77.1679 C.3       6 UNK         0.0408 
     41 CB        -76.7294   20.4472  -77.2558 C.3       6 UNK        -0.1791 
     42 N         -76.6986   22.6624  -76.1093 N.am      6 UNK        -0.4762 
     43 C         -76.6648   22.4392  -74.7822 C.2       6 UNK         0.5007 
     44 O         -76.2563   21.3923  -74.2783 O.2       6 UNK        -0.5032 
     45 CA        -77.1075   23.6154  -73.8849 C.3       5 UNK         0.0783 
     46 C46       -76.7122   23.4470  -72.3923 C.3       11 UNK        -0.0857 
     47 S47       -74.9561   23.8168  -72.0277 S.3       11 UNK        -0.2512 
     48 C48       -75.0705   24.7555  -70.4696 C.3       11 UNK         0.0225 
     49 N         -76.6180   24.8763  -74.4609 N.am      5 UNK        -0.4615 
     50 C         -77.3859   25.8211  -75.0073 C.2       4 UNK         0.5053 
     51 O         -78.6195   25.8004  -74.9879 O.2       4 UNK        -0.5105 
     52 CA        -76.6567   26.9283  -75.7772 C.3       4 UNK         0.0263 
     53 CB        -76.1895   26.3755  -77.1430 C.3       4 UNK        -0.1981 
     54 N         -77.5885   28.0409  -75.9450 N.am      4 UNK        -0.4224 
     55 C         -77.3776   29.2111  -76.5602 C.2       3 UNK         0.4895 
     56 O         -76.3220   29.5145  -77.1184 O.2       3 UNK        -0.5091 
     57 CA        -78.5379   30.2285  -76.5280 C.3       3 UNK         0.0250 
     58 CB        -78.4560   31.2646  -77.6692 C.3       3 UNK        -0.1996 
     59 N         -79.8672   29.6042  -76.4777 N.am      3 UNK        -0.4254 
     60 C         -80.4206   28.7813  -77.3813 C.2       2 UNK         0.5004 
     61 O         -79.8861   28.4637  -78.4450 O.2       2 UNK        -0.5226 
     62 CA        -81.7847   28.1790  -76.9928 C.3       2 UNK         0.0269 
     63 CB        -82.3655   27.2641  -78.0876 C.3       2 UNK        -0.1926 
     64 N         -81.6856   27.4146  -75.7460 N.am      2 UNK        -0.4687 
     65 C         -81.6949   27.9296  -74.5074 C.2       1 UNK         0.5165 
     66 O         -81.8117   29.1378  -74.2949 O.2       1 UNK        -0.5079 
     67 H67       -80.4615   23.4495  -74.9570 H         1 UNK         0.0900 
     68 H68       -82.1005   22.8294  -75.1365 H         1 UNK         0.0900 
     69 H69       -81.2196   22.5609  -73.6295 H         1 UNK         0.0900 
     70 H70       -80.1974   25.5372  -74.1444 H         1 UNK         0.2959 
     71 H71       -82.4811   26.9270  -72.8147 H         1 UNK         0.1079 
     72 H72       -80.6925   28.5286  -72.0273 H         1 UNK         0.0837 
     73 H73       -79.4708   27.5074  -72.7531 H         1 UNK         0.0837 
     74 H74       -79.6039   28.5191  -69.7257 H         1 UNK         0.0685 
     75 H75       -79.3080   27.1105  -68.7379 H         1 UNK         0.0685 
     76 H76       -77.6181   25.3338  -69.6725 H         1 UNK         0.1434 
     77 H77       -74.2059   27.0909  -71.5780 H         1 UNK         0.1329 
     78 H78       -77.7584   29.4143  -70.9689 H         1 UNK         0.1335 
     79 H79       -74.9333   30.2672  -71.1337 H         1 UNK         0.0680 
     80 H80       -74.2605   29.2868  -72.4184 H         1 UNK         0.0680 
     81 H81       -74.1134   31.7430  -72.9867 H         1 UNK         0.1032 
     82 H82       -75.4855   32.7793  -73.2425 H         1 UNK         0.1032 
     83 H83       -75.5992   32.1754  -75.6082 H         1 UNK         0.0461 
     84 H84       -72.7357   32.1799  -76.8891 H         1 UNK         0.3453 
     85 H85       -72.2402   33.8282  -76.5876 H         1 UNK         0.3453 
     86 H86       -74.8826   30.2866  -76.3820 H         1 UNK         0.2984 
     87 H87       -74.0051   28.2977  -76.4675 H         1 UNK         0.0554 
     88 H88       -72.1098   28.0134  -78.0708 H         1 UNK         0.0847 
     89 H89       -71.2325   29.3160  -77.2676 H         1 UNK         0.0847 
     90 H90       -72.7480   29.6481  -78.0892 H         1 UNK         0.0847 
     91 H91       -73.0839   26.7292  -75.2537 H         1 UNK         0.3141 
     92 H92       -69.8679   25.9484  -74.0537 H         1 UNK         0.0743 
     93 H93       -72.6697   26.0362  -72.8354 H         1 UNK         0.0784 
     94 H94       -71.2704   25.1848  -72.1963 H         1 UNK         0.0784 
     95 H95       -71.2849   26.9417  -72.2436 H         1 UNK         0.0784 
     96 H96       -70.5396   24.2099  -75.1851 H         1 UNK         0.3213 
     97 H97       -71.9490   22.9928  -76.8394 H         1 UNK         0.0855 
     98 H98       -71.1560   22.0172  -74.6229 H         1 UNK         0.0814 
     99 H99       -72.8271   21.8493  -74.1022 H         1 UNK         0.0814 
    100 H100      -72.2108   20.8890  -75.4441 H         1 UNK         0.0814 
    101 H101      -74.5713   23.5432  -76.0436 H         1 UNK         0.3105 
    102 H102      -76.2857   22.3604  -78.1067 H         1 UNK         0.0547 
    103 H103      -76.3822   19.9117  -78.1401 H         1 UNK         0.0837 
    104 H104      -76.4868   19.8295  -76.3909 H         1 UNK         0.0837 
    105 H105      -77.8147   20.5167  -77.3262 H         1 UNK         0.0837 
    106 H106      -77.0846   23.5437  -76.4182 H         1 UNK         0.3020 
    107 H107      -78.1983   23.5913  -73.9198 H         1 UNK         0.1245 
    108 H108      -76.9427   22.4443  -72.0281 H         1 UNK         0.0781 
    109 H109      -77.3487   24.1054  -71.8052 H         1 UNK         0.0781 
    110 H110      -74.0609   24.9658  -70.1137 H         1 UNK         0.0836 
    111 H111      -75.5343   24.1266  -69.7081 H         1 UNK         0.0836 
    112 H112      -75.6070   24.9730  -74.4965 H         1 UNK         0.3022 
    113 H113      -75.8037   27.2693  -75.1875 H         1 UNK         0.0747 
    114 H114      -75.5196   25.5245  -77.0191 H         1 UNK         0.0793 
    115 H115      -77.0338   26.0441  -77.7490 H         1 UNK         0.0793 
    116 H116      -75.6414   27.1156  -77.7238 H         1 UNK         0.0793 
    117 H117      -78.4980   27.8591  -75.5401 H         1 UNK         0.3047 
    118 H118      -78.4248   30.7704  -75.5877 H         1 UNK         0.0822 
    119 H119      -79.2748   31.9818  -77.6144 H         1 UNK         0.0807 
    120 H120      -78.4899   30.7892  -78.6499 H         1 UNK         0.0807 
    121 H121      -77.5264   31.8327  -77.6167 H         1 UNK         0.0807 
    122 H122      -80.4015   29.7710  -75.6302 H         1 UNK         0.2946 
    123 H123      -82.4779   29.0118  -76.8511 H         1 UNK         0.1144 
    124 H124      -83.3498   26.8876  -77.8086 H         1 UNK         0.0793 
    125 H125      -81.7207   26.4062  -78.2824 H         1 UNK         0.0793 
    126 H126      -82.4824   27.8053  -79.0276 H         1 UNK         0.0793 
    127 H127      -81.5438   26.4186  -75.8355 H         1 UNK         0.2896 
@<TRIPOS>BOND
     1    1    2 1    
     2    1   67 1    
     3    1   68 1    
     4    1   69 1    
     5    2    3 2    
     6    2    4 am   BACKBONE|DICT|INTERRES
     7    4    5 1    
     8    4   70 1    
     9    5    6 1    
    10    5   65 1    
    11    5   71 1    
    12    6    7 1    
    13    6   72 1    
    14    6   73 1    
    15    7    8 1    
    16    8    9 1    
    17    8   74 1    
    18    8   75 1    
    19    9   10 ar   
    20    9   14 ar   
    21   10   11 ar   
    22   10   76 1    
    23   11   12 ar   
    24   11   48 1    
    25   12   13 ar   
    26   12   77 1    
    27   13   14 ar   
    28   13   15 1    
    29   14   78 1    
    30   15   16 1    
    31   15   79 1    
    32   15   80 1    
    33   16   17 1    
    34   17   18 1    
    35   17   81 1    
    36   17   82 1    
    37   18   19 1    
    38   18   22 1    
    39   18   83 1    
    40   19   20 am   BACKBONE|DICT|INTERRES
    41   19   21 2    
    42   20   84 1    
    43   20   85 1    
    44   22   23 am   BACKBONE|DICT|INTERRES
    45   22   86 1    
    46   23   24 2    
    47   23   25 1    
    48   25   26 1    
    49   25   27 1    
    50   25   87 1    
    51   26   88 1    
    52   26   89 1    
    53   26   90 1    
    54   27   28 am   BACKBONE|DICT|INTERRES
    55   27   91 1    
    56   28   29 2    
    57   28   30 1    
    58   30   31 1    
    59   30   32 1    
    60   30   92 1    
    61   31   93 1    
    62   31   94 1    
    63   31   95 1    
    64   32   33 am   BACKBONE|DICT|INTERRES
    65   32   96 1    
    66   33   34 2    
    67   33   35 1    
    68   35   36 1    
    69   35   37 1    
    70   35   97 1    
    71   36   98 1    
    72   36   99 1    
    73   36  100 1    
    74   37   38 am   BACKBONE|DICT|INTERRES
    75   37  101 1    
    76   38   39 2    
    77   38   40 1    
    78   40   41 1    
    79   40   42 1    
    80   40  102 1    
    81   41  103 1    
    82   41  104 1    
    83   41  105 1    
    84   42   43 am   BACKBONE|DICT|INTERRES
    85   42  106 1    
    86   43   44 2    
    87   43   45 1    
    88   45   46 1    
    89   45   49 1    
    90   45  107 1    
    91   46   47 1    
    92   46  108 1    
    93   46  109 1    
    94   47   48 1    
    95   48  110 1    
    96   48  111 1    
    97   49   50 am   BACKBONE|DICT|INTERRES
    98   49  112 1    
    99   50   51 2    
   100   50   52 1    
   101   52   53 1    
   102   52   54 1    
   103   52  113 1    
   104   53  114 1    
   105   53  115 1    
   106   53  116 1    
   107   54   55 am   BACKBONE|DICT|INTERRES
   108   54  117 1    
   109   55   56 2    
   110   55   57 1    
   111   57   58 1    
   112   57   59 1    
   113   57  118 1    
   114   58  119 1    
   115   58  120 1    
   116   58  121 1    
   117   59   60 am   BACKBONE|DICT|INTERRES
   118   59  122 1    
   119   60   61 2    
   120   60   62 1    
   121   62   63 1    
   122   62   64 1    
   123   62  123 1    
   124   63  124 1    
   125   63  125 1    
   126   63  126 1    
   127   64   65 am   BACKBONE|DICT|INTERRES
   128   64  127 1    
   129   65   66 2    
@<TRIPOS>SUBSTRUCTURE
     1 UNK         1 GROUP             0       ****    0 ROOT    
