@<TRIPOS>MOLECULE
3R135
127   129    1
SMALL
USER_CHARGES


@<TRIPOS>ATOM
      1 CA        -83.7944   26.1607  -70.9212 C.3       0 UNK        -0.1998 
      2 C         -82.8865   27.0793  -71.7252 C.2       0 UNK         0.4909 
      3 O         -82.6608   28.2221  -71.3265 O.2       0 UNK        -0.5240 
      4 N         -82.3661   26.5895  -72.8539 N.am      1 UNK        -0.4739 
      5 CA        -81.5011   27.3154  -73.7812 C.3       1 UNK         0.0864 
      6 C6        -80.0485   27.4603  -73.2505 C.3       11 UNK        -0.0881 
      7 S7        -79.2098   28.9396  -73.9236 S.3       11 UNK        -0.2682 
      8 C8        -78.8824   29.9196  -72.4160 C.3       11 UNK         0.0289 
      9 C9        -77.5528   29.5877  -71.7383 C.ar      11 UNK        -0.0687 
     10 C10       -77.1064   28.2697  -71.6107 C.ar      11 UNK        -0.0823 
     11 C11       -75.8858   27.9723  -71.0009 C.ar      11 UNK        -0.0830 
     12 C12       -75.1147   29.0157  -70.4746 C.ar      11 UNK        -0.1021 
     13 C13       -75.5703   30.3379  -70.5448 C.ar      11 UNK        -0.0753 
     14 C14       -76.7803   30.6149  -71.1902 C.ar      11 UNK        -0.0933 
     15 C15       -74.8132   31.4620  -69.8480 C.3       11 UNK         0.0166 
     16 S16       -74.3019   32.7900  -70.9870 S.3       11 UNK        -0.2615 
     17 C17       -72.6143   32.2800  -71.4537 C.3       11 UNK        -0.0865 
     18 CA        -72.4952   31.8724  -72.9428 C.3       10 UNK         0.0862 
     19 C         -70.9954   31.7078  -73.3301 C.2       10 UNK         0.5551 
     20 N         -70.4833   30.4980  -73.5199 N.am      10 UNK        -0.7319 
     21 O         -70.2849   32.7021  -73.4567 O.2       10 UNK        -0.5018 
     22 N         -73.3386   30.7081  -73.2518 N.am      10 UNK        -0.4509 
     23 C         -73.6199   30.2763  -74.4852 C.2       10 UNK         0.4899 
     24 O         -73.3095   30.8736  -75.5179 O.2       10 UNK        -0.4839 
     25 CA        -74.3309   28.9165  -74.5751 C.3       9 UNK         0.0222 
     26 CB        -75.5609   28.9932  -75.4955 C.3       9 UNK        -0.1966 
     27 N         -73.4167   27.8668  -75.0418 N.am      9 UNK        -0.4218 
     28 C         -72.2949   27.4853  -74.4036 C.2       9 UNK         0.5020 
     29 O         -71.9129   27.9871  -73.3444 O.2       9 UNK        -0.5274 
     30 CA        -71.4365   26.3622  -75.0149 C.3       8 UNK         0.0270 
     31 CB        -71.3907   25.1358  -74.0872 C.3       8 UNK        -0.1976 
     32 N         -71.8838   25.9466  -76.3441 N.am      8 UNK        -0.4313 
     33 C         -71.5088   26.5449  -77.4841 C.2       8 UNK         0.5041 
     34 O         -70.7124   27.4833  -77.5295 O.2       8 UNK        -0.5577 
     35 CA        -72.1154   26.0247  -78.8021 C.3       7 UNK         0.0284 
     36 CB        -71.0936   25.1595  -79.5584 C.3       7 UNK        -0.1958 
     37 N         -73.3586   25.2647  -78.6417 N.am      7 UNK        -0.4454 
     38 C         -74.5042   25.7561  -78.1519 C.2       7 UNK         0.5089 
     39 O         -74.6328   26.9192  -77.7693 O.2       7 UNK        -0.5125 
     40 CA        -75.6996   24.7920  -78.0333 C.3       6 UNK         0.0408 
     41 CB        -75.4314   23.3657  -78.5660 C.3       6 UNK        -0.1791 
     42 N         -76.2154   24.7280  -76.6631 N.am      6 UNK        -0.4762 
     43 C         -75.5359   24.3961  -75.5524 C.2       6 UNK         0.5007 
     44 O         -74.3296   24.1451  -75.5523 O.2       6 UNK        -0.5032 
     45 CA        -76.3365   24.2546  -74.2405 C.3       5 UNK         0.0783 
     46 C46       -76.3515   25.5462  -73.3875 C.3       11 UNK        -0.0857 
     47 S47       -74.8233   25.8079  -72.4241 S.3       11 UNK        -0.2512 
     48 C48       -75.4411   26.5191  -70.8608 C.3       11 UNK         0.0225 
     49 N         -77.7012   23.7886  -74.5112 N.am      5 UNK        -0.4615 
     50 C         -78.3111   22.7925  -73.8553 C.2       4 UNK         0.5053 
     51 O         -77.7975   22.1726  -72.9237 O.2       4 UNK        -0.5105 
     52 CA        -79.7406   22.4171  -74.2954 C.3       4 UNK         0.0263 
     53 CB        -80.7669   23.0217  -73.3234 C.3       4 UNK        -0.1981 
     54 N         -80.0640   22.8315  -75.6646 N.am      4 UNK        -0.4224 
     55 C         -79.4899   22.3252  -76.7678 C.2       3 UNK         0.4895 
     56 O         -78.7014   21.3797  -76.7467 O.2       3 UNK        -0.5091 
     57 CA        -79.8156   22.9826  -78.1253 C.3       3 UNK         0.0250 
     58 CB        -80.7028   22.0539  -78.9708 C.3       3 UNK        -0.1996 
     59 N         -80.4453   24.3070  -78.0589 N.am      3 UNK        -0.4254 
     60 C         -79.9407   25.3972  -77.4652 C.2       2 UNK         0.5004 
     61 O         -78.8787   25.4013  -76.8385 O.2       2 UNK        -0.5226 
     62 CA        -80.7759   26.6916  -77.5202 C.3       2 UNK         0.0269 
     63 CB        -82.1218   26.5582  -78.2704 C.3       2 UNK        -0.1926 
     64 N         -80.9884   27.2286  -76.1717 N.am      2 UNK        -0.4687 
     65 C         -81.5445   26.5863  -75.1351 C.2       1 UNK         0.5165 
     66 O         -82.0385   25.4553  -75.2082 O.2       1 UNK        -0.5079 
     67 H67       -83.9007   25.1820  -71.3889 H         1 UNK         0.0900 
     68 H68       -84.7864   26.6017  -70.8271 H         1 UNK         0.0900 
     69 H69       -83.3891   26.0155  -69.9202 H         1 UNK         0.0900 
     70 H70       -82.6182   25.6658  -73.1866 H         1 UNK         0.2959 
     71 H71       -81.9422   28.3042  -73.9284 H         1 UNK         0.1079 
     72 H72       -80.0551   27.5338  -72.1624 H         1 UNK         0.0837 
     73 H73       -79.4506   26.5745  -73.4754 H         1 UNK         0.0837 
     74 H74       -79.6977   29.7962  -71.7019 H         1 UNK         0.0685 
     75 H75       -78.8913   30.9712  -72.7065 H         1 UNK         0.0685 
     76 H76       -77.7154   27.4662  -71.9850 H         1 UNK         0.1434 
     77 H77       -74.1836   28.7929  -69.9712 H         1 UNK         0.1329 
     78 H78       -77.1311   31.6367  -71.2425 H         1 UNK         0.1335 
     79 H79       -73.9520   31.0802  -69.2980 H         1 UNK         0.0680 
     80 H80       -75.4730   31.8979  -69.0966 H         1 UNK         0.0680 
     81 H81       -71.9601   33.1277  -71.2393 H         1 UNK         0.1032 
     82 H82       -72.2677   31.4701  -70.8096 H         1 UNK         0.1032 
     83 H83       -72.8707   32.7037  -73.5429 H         1 UNK         0.0461 
     84 H84       -71.0583   29.6671  -73.4057 H         1 UNK         0.3453 
     85 H85       -69.5118   30.4070  -73.7692 H         1 UNK         0.3453 
     86 H86       -73.6247   30.1447  -72.4643 H         1 UNK         0.2984 
     87 H87       -74.6787   28.6331  -73.5805 H         1 UNK         0.0554 
     88 H88       -76.2827   29.7179  -75.1164 H         1 UNK         0.0847 
     89 H89       -76.0730   28.0347  -75.5674 H         1 UNK         0.0847 
     90 H90       -75.2911   29.2982  -76.5073 H         1 UNK         0.0847 
     91 H91       -73.6471   27.4344  -75.9291 H         1 UNK         0.3141 
     92 H92       -70.4184   26.7505  -75.0893 H         1 UNK         0.0743 
     93 H93       -70.9905   25.4026  -73.1082 H         1 UNK         0.0784 
     94 H94       -72.3811   24.7123  -73.9237 H         1 UNK         0.0784 
     95 H95       -70.7524   24.3519  -74.4946 H         1 UNK         0.0784 
     96 H96       -72.5728   25.2026  -76.3757 H         1 UNK         0.3213 
     97 H97       -72.3427   26.8997  -79.4150 H         1 UNK         0.0855 
     98 H98       -70.8417   24.2546  -79.0039 H         1 UNK         0.0814 
     99 H99       -70.1650   25.7077  -79.7246 H         1 UNK         0.0814 
    100 H100      -71.4698   24.8622  -80.5375 H         1 UNK         0.0814 
    101 H101      -73.3334   24.2921  -78.9118 H         1 UNK         0.3105 
    102 H102      -76.4976   25.2245  -78.6384 H         1 UNK         0.0547 
    103 H103      -74.6400   22.8589  -78.0124 H         1 UNK         0.0837 
    104 H104      -76.3260   22.7478  -78.4878 H         1 UNK         0.0837 
    105 H105      -75.1507   23.3804  -79.6199 H         1 UNK         0.0837 
    106 H106      -77.1952   24.9969  -76.5858 H         1 UNK         0.3020 
    107 H107      -75.8149   23.4818  -73.6705 H         1 UNK         0.1245 
    108 H108      -77.1689   25.4662  -72.6710 H         1 UNK         0.0781 
    109 H109      -76.5642   26.4276  -73.9929 H         1 UNK         0.0781 
    110 H110      -76.2639   25.9128  -70.4792 H         1 UNK         0.0836 
    111 H111      -74.6468   26.4440  -70.1167 H         1 UNK         0.0836 
    112 H112      -78.1952   24.2413  -75.2716 H         1 UNK         0.3022 
    113 H113      -79.8242   21.3293  -74.2481 H         1 UNK         0.0747 
    114 H114      -80.6183   22.6375  -72.3133 H         1 UNK         0.0793 
    115 H115      -81.7884   22.7779  -73.6160 H         1 UNK         0.0793 
    116 H116      -80.6796   24.1070  -73.2712 H         1 UNK         0.0793 
    117 H117      -80.7065   23.6081  -75.7649 H         1 UNK         0.3047 
    118 H118      -78.8637   23.1092  -78.6449 H         1 UNK         0.0822 
    119 H119      -80.2491   21.0673  -79.0775 H         1 UNK         0.0807 
    120 H120      -80.8485   22.4489  -79.9764 H         1 UNK         0.0807 
    121 H121      -81.6850   21.9131  -78.5178 H         1 UNK         0.0807 
    122 H122      -81.3435   24.3949  -78.5118 H         1 UNK         0.2946 
    123 H123      -80.1641   27.4189  -78.0566 H         1 UNK         0.1144 
    124 H124      -81.9703   26.2575  -79.3080 H         1 UNK         0.0793 
    125 H125      -82.6480   27.5126  -78.2943 H         1 UNK         0.0793 
    126 H126      -82.7877   25.8314  -77.8036 H         1 UNK         0.0793 
    127 H127      -80.5497   28.1211  -75.9850 H         1 UNK         0.2896 
@<TRIPOS>BOND
     1    1    2 1    
     2    1   67 1    
     3    1   68 1    
     4    1   69 1    
     5    2    3 2    
     6    2    4 am   BACKBONE|DICT|INTERRES
     7    4    5 1    
     8    4   70 1    
     9    5    6 1    
    10    5   65 1    
    11    5   71 1    
    12    6    7 1    
    13    6   72 1    
    14    6   73 1    
    15    7    8 1    
    16    8    9 1    
    17    8   74 1    
    18    8   75 1    
    19    9   10 ar   
    20    9   14 ar   
    21   10   11 ar   
    22   10   76 1    
    23   11   12 ar   
    24   11   48 1    
    25   12   13 ar   
    26   12   77 1    
    27   13   14 ar   
    28   13   15 1    
    29   14   78 1    
    30   15   16 1    
    31   15   79 1    
    32   15   80 1    
    33   16   17 1    
    34   17   18 1    
    35   17   81 1    
    36   17   82 1    
    37   18   19 1    
    38   18   22 1    
    39   18   83 1    
    40   19   20 am   BACKBONE|DICT|INTERRES
    41   19   21 2    
    42   20   84 1    
    43   20   85 1    
    44   22   23 am   BACKBONE|DICT|INTERRES
    45   22   86 1    
    46   23   24 2    
    47   23   25 1    
    48   25   26 1    
    49   25   27 1    
    50   25   87 1    
    51   26   88 1    
    52   26   89 1    
    53   26   90 1    
    54   27   28 am   BACKBONE|DICT|INTERRES
    55   27   91 1    
    56   28   29 2    
    57   28   30 1    
    58   30   31 1    
    59   30   32 1    
    60   30   92 1    
    61   31   93 1    
    62   31   94 1    
    63   31   95 1    
    64   32   33 am   BACKBONE|DICT|INTERRES
    65   32   96 1    
    66   33   34 2    
    67   33   35 1    
    68   35   36 1    
    69   35   37 1    
    70   35   97 1    
    71   36   98 1    
    72   36   99 1    
    73   36  100 1    
    74   37   38 am   BACKBONE|DICT|INTERRES
    75   37  101 1    
    76   38   39 2    
    77   38   40 1    
    78   40   41 1    
    79   40   42 1    
    80   40  102 1    
    81   41  103 1    
    82   41  104 1    
    83   41  105 1    
    84   42   43 am   BACKBONE|DICT|INTERRES
    85   42  106 1    
    86   43   44 2    
    87   43   45 1    
    88   45   46 1    
    89   45   49 1    
    90   45  107 1    
    91   46   47 1    
    92   46  108 1    
    93   46  109 1    
    94   47   48 1    
    95   48  110 1    
    96   48  111 1    
    97   49   50 am   BACKBONE|DICT|INTERRES
    98   49  112 1    
    99   50   51 2    
   100   50   52 1    
   101   52   53 1    
   102   52   54 1    
   103   52  113 1    
   104   53  114 1    
   105   53  115 1    
   106   53  116 1    
   107   54   55 am   BACKBONE|DICT|INTERRES
   108   54  117 1    
   109   55   56 2    
   110   55   57 1    
   111   57   58 1    
   112   57   59 1    
   113   57  118 1    
   114   58  119 1    
   115   58  120 1    
   116   58  121 1    
   117   59   60 am   BACKBONE|DICT|INTERRES
   118   59  122 1    
   119   60   61 2    
   120   60   62 1    
   121   62   63 1    
   122   62   64 1    
   123   62  123 1    
   124   63  124 1    
   125   63  125 1    
   126   63  126 1    
   127   64   65 am   BACKBONE|DICT|INTERRES
   128   64  127 1    
   129   65   66 2    
@<TRIPOS>SUBSTRUCTURE
     1 UNK         1 GROUP             0       ****    0 ROOT    
