@<TRIPOS>MOLECULE
3R135
127   129    1
SMALL
USER_CHARGES


@<TRIPOS>ATOM
      1 CA        -83.5492   27.3949  -72.0493 C.3       0 UNK        -0.1998 
      2 C         -82.3131   27.3987  -72.9366 C.2       0 UNK         0.4909 
      3 O         -81.5274   26.4531  -72.8860 O.2       0 UNK        -0.5240 
      4 N         -82.1419   28.4586  -73.7423 N.am      1 UNK        -0.4739 
      5 CA        -81.0252   28.6723  -74.6799 C.3       1 UNK         0.0864 
      6 C6        -79.6548   28.8706  -73.9725 C.3       11 UNK        -0.0881 
      7 S7        -79.6263   30.3938  -72.9632 S.3       11 UNK        -0.2682 
      8 C8        -79.7483   29.7554  -71.2602 C.3       11 UNK         0.0289 
      9 C9        -78.4924   29.0080  -70.8370 C.ar      11 UNK        -0.0687 
     10 C10       -78.5228   27.6210  -70.6635 C.ar      11 UNK        -0.0823 
     11 C11       -77.3602   26.9262  -70.3154 C.ar      11 UNK        -0.0830 
     12 C12       -76.1749   27.6337  -70.1005 C.ar      11 UNK        -0.1021 
     13 C13       -76.1269   29.0188  -70.2834 C.ar      11 UNK        -0.0753 
     14 C14       -77.2937   29.7019  -70.6400 C.ar      11 UNK        -0.0933 
     15 C15       -74.8082   29.7680  -70.1374 C.3       11 UNK         0.0166 
     16 S16       -73.5235   29.0482  -71.2104 S.3       11 UNK        -0.2615 
     17 C17       -72.3519   30.4359  -71.3952 C.3       11 UNK        -0.0865 
     18 CA        -72.5724   31.2519  -72.6997 C.3       10 UNK         0.0862 
     19 C         -71.4601   32.3302  -72.8568 C.2       10 UNK         0.5551 
     20 N         -70.5526   32.2107  -73.8195 N.am      10 UNK        -0.7319 
     21 O         -71.4218   33.2876  -72.0878 O.2       10 UNK        -0.5018 
     22 N         -72.7551   30.3718  -73.8649 N.am      10 UNK        -0.4509 
     23 C         -73.2059   30.7349  -75.0715 C.2       10 UNK         0.4899 
     24 O         -73.5298   31.8882  -75.3588 O.2       10 UNK        -0.4839 
     25 CA        -73.3536   29.6204  -76.1293 C.3       9 UNK         0.0222 
     26 CB        -72.9187   30.0891  -77.5339 C.3       9 UNK        -0.1966 
     27 N         -72.7044   28.3491  -75.7738 N.am      9 UNK        -0.4218 
     28 C         -71.3924   28.1090  -75.6113 C.2       9 UNK         0.5020 
     29 O         -70.5130   28.9652  -75.7150 O.2       9 UNK        -0.5274 
     30 CA        -71.0013   26.6673  -75.2528 C.3       8 UNK         0.0270 
     31 CB        -71.1933   26.4140  -73.7473 C.3       8 UNK        -0.1976 
     32 N         -71.7927   25.7044  -76.0212 N.am      8 UNK        -0.4313 
     33 C         -71.4547   25.2400  -77.2333 C.2       8 UNK         0.5041 
     34 O         -70.3781   25.4765  -77.7830 O.2       8 UNK        -0.5577 
     35 CA        -72.4966   24.3755  -77.9686 C.3       7 UNK         0.0284 
     36 CB        -72.2973   22.8888  -77.6336 C.3       7 UNK        -0.1958 
     37 N         -73.8739   24.7724  -77.6609 N.am      7 UNK        -0.4454 
     38 C         -74.4280   25.9266  -78.0667 C.2       7 UNK         0.5089 
     39 O         -73.8799   26.7016  -78.8502 O.2       7 UNK        -0.5125 
     40 CA        -75.8052   26.3116  -77.4907 C.3       6 UNK         0.0408 
     41 CB        -76.9039   26.1182  -78.5471 C.3       6 UNK        -0.1791 
     42 N         -76.1797   25.5903  -76.2711 N.am      6 UNK        -0.4762 
     43 C         -75.5206   25.6349  -75.1015 C.2       6 UNK         0.5007 
     44 O         -74.5045   26.3085  -74.9235 O.2       6 UNK        -0.5032 
     45 CA        -76.0559   24.7463  -73.9562 C.3       5 UNK         0.0783 
     46 C46       -77.0624   25.5697  -73.1171 C.3       11 UNK        -0.0857 
     47 S47       -77.9050   24.6148  -71.7989 S.3       11 UNK        -0.2512 
     48 C48       -77.3508   25.4045  -70.2467 C.3       11 UNK         0.0225 
     49 N         -76.6579   23.4959  -74.4289 N.am      5 UNK        -0.4615 
     50 C         -76.1388   22.6015  -75.2809 C.2       4 UNK         0.5053 
     51 O         -74.9881   22.6548  -75.7147 O.2       4 UNK        -0.5105 
     52 CA        -77.0941   21.5024  -75.7909 C.3       4 UNK         0.0263 
     53 CB        -76.8277   20.1806  -75.0532 C.3       4 UNK        -0.1981 
     54 N         -78.5237   21.8401  -75.6816 N.am      4 UNK        -0.4224 
     55 C         -79.1113   22.9235  -76.2139 C.2       3 UNK         0.4895 
     56 O         -78.5107   23.7538  -76.9027 O.2       3 UNK        -0.5091 
     57 CA        -80.5906   23.1470  -75.8682 C.3       3 UNK         0.0250 
     58 CB        -80.8266   23.1791  -74.3432 C.3       3 UNK        -0.1996 
     59 N         -81.0075   24.4197  -76.4459 N.am      3 UNK        -0.4254 
     60 C         -82.2509   24.7885  -76.7570 C.2       2 UNK         0.5004 
     61 O         -83.2422   24.0749  -76.5888 O.2       2 UNK        -0.5226 
     62 CA        -82.4021   26.2122  -77.3243 C.3       2 UNK         0.0269 
     63 CB        -83.7835   26.4493  -77.9634 C.3       2 UNK        -0.1926 
     64 N         -82.1844   27.2195  -76.2830 N.am      2 UNK        -0.4687 
     65 C         -80.9930   27.6063  -75.8014 C.2       1 UNK         0.5165 
     66 O         -79.9202   27.1647  -76.2191 O.2       1 UNK        -0.5079 
     67 H67       -84.1631   26.5208  -72.2661 H         1 UNK         0.0900 
     68 H68       -84.1616   28.2853  -72.1959 H         1 UNK         0.0900 
     69 H69       -83.2560   27.3535  -71.0003 H         1 UNK         0.0900 
     70 H70       -82.8267   29.2024  -73.7212 H         1 UNK         0.2959 
     71 H71       -81.2498   29.6039  -75.2032 H         1 UNK         0.1079 
     72 H72       -79.3959   28.0014  -73.3670 H         1 UNK         0.0837 
     73 H73       -78.8528   28.9703  -74.7064 H         1 UNK         0.0837 
     74 H74       -80.6308   29.1209  -71.1716 H         1 UNK         0.0685 
     75 H75       -79.9075   30.5949  -70.5820 H         1 UNK         0.0685 
     76 H76       -79.4387   27.0738  -70.8447 H         1 UNK         0.1434 
     77 H77       -75.2694   27.1015  -69.8419 H         1 UNK         0.1329 
     78 H78       -77.2686   30.7724  -70.7923 H         1 UNK         0.1335 
     79 H79       -74.4779   29.7323  -69.0985 H         1 UNK         0.0680 
     80 H80       -74.9393   30.8207  -70.3929 H         1 UNK         0.0680 
     81 H81       -72.4152   31.0852  -70.5196 H         1 UNK         0.1032 
     82 H82       -71.3448   30.0139  -71.3808 H         1 UNK         0.1032 
     83 H83       -73.5093   31.8007  -72.5832 H         1 UNK         0.0461 
     84 H84       -69.8357   32.9125  -73.9175 H         1 UNK         0.3453 
     85 H85       -70.5813   31.4218  -74.4483 H         1 UNK         0.3453 
     86 H86       -72.5370   29.3989  -73.7126 H         1 UNK         0.2984 
     87 H87       -74.4207   29.3982  -76.1758 H         1 UNK         0.0554 
     88 H88       -73.0495   29.2994  -78.2737 H         1 UNK         0.0847 
     89 H89       -71.8728   30.3972  -77.5535 H         1 UNK         0.0847 
     90 H90       -73.5132   30.9414  -77.8654 H         1 UNK         0.0847 
     91 H91       -73.3471   27.5848  -75.5725 H         1 UNK         0.3141 
     92 H92       -69.9415   26.5372  -75.4836 H         1 UNK         0.0743 
     93 H93       -70.5949   27.1093  -73.1566 H         1 UNK         0.0784 
     94 H94       -72.2323   26.5365  -73.4381 H         1 UNK         0.0784 
     95 H95       -70.8805   25.4059  -73.4736 H         1 UNK         0.0784 
     96 H96       -72.7161   25.4918  -75.6627 H         1 UNK         0.3213 
     97 H97       -72.3384   24.5061  -79.0415 H         1 UNK         0.0855 
     98 H98       -72.4097   22.6959  -76.5659 H         1 UNK         0.0814 
     99 H99       -71.2986   22.5563  -77.9202 H         1 UNK         0.0814 
    100 H100      -73.0133   22.2614  -78.1647 H         1 UNK         0.0814 
    101 H101      -74.3929   24.1718  -77.0280 H         1 UNK         0.3105 
    102 H102      -75.7615   27.3730  -77.2386 H         1 UNK         0.0547 
    103 H103      -77.0011   25.0718  -78.8389 H         1 UNK         0.0837 
    104 H104      -77.8734   26.4535  -78.1773 H         1 UNK         0.0837 
    105 H105      -76.6857   26.6908  -79.4496 H         1 UNK         0.0837 
    106 H106      -76.9931   24.9855  -76.3464 H         1 UNK         0.3020 
    107 H107      -75.2053   24.4791  -73.3258 H         1 UNK         0.1245 
    108 H108      -77.8508   25.9735  -73.7570 H         1 UNK         0.0781 
    109 H109      -76.5522   26.4375  -72.6988 H         1 UNK         0.0781 
    110 H110      -77.9981   25.0786  -69.4316 H         1 UNK         0.0836 
    111 H111      -76.3518   25.0338  -70.0118 H         1 UNK         0.0836 
    112 H112      -77.6041   23.3407  -74.1146 H         1 UNK         0.3022 
    113 H113      -76.8744   21.3561  -76.8506 H         1 UNK         0.0747 
    114 H114      -75.7794   19.8901  -75.1388 H         1 UNK         0.0793 
    115 H115      -77.4212   19.3660  -75.4688 H         1 UNK         0.0793 
    116 H116      -77.0583   20.2581  -73.9897 H         1 UNK         0.0793 
    117 H117      -79.0890   21.2078  -75.1328 H         1 UNK         0.3047 
    118 H118      -81.1693   22.3379  -76.3186 H         1 UNK         0.0822 
    119 H119      -80.5668   22.2318  -73.8702 H         1 UNK         0.0807 
    120 H120      -81.8739   23.3717  -74.1087 H         1 UNK         0.0807 
    121 H121      -80.2370   23.9622  -73.8632 H         1 UNK         0.0807 
    122 H122      -80.2471   25.0716  -76.6173 H         1 UNK         0.2946 
    123 H123      -81.6474   26.3379  -78.1046 H         1 UNK         0.1144 
    124 H124      -84.5892   26.3656  -77.2328 H         1 UNK         0.0793 
    125 H125      -83.9791   25.7188  -78.7497 H         1 UNK         0.0793 
    126 H126      -83.8452   27.4379  -78.4190 H         1 UNK         0.0793 
    127 H127      -83.0127   27.6040  -75.8521 H         1 UNK         0.2896 
@<TRIPOS>BOND
     1    1    2 1    
     2    1   67 1    
     3    1   68 1    
     4    1   69 1    
     5    2    3 2    
     6    2    4 am   BACKBONE|DICT|INTERRES
     7    4    5 1    
     8    4   70 1    
     9    5    6 1    
    10    5   65 1    
    11    5   71 1    
    12    6    7 1    
    13    6   72 1    
    14    6   73 1    
    15    7    8 1    
    16    8    9 1    
    17    8   74 1    
    18    8   75 1    
    19    9   10 ar   
    20    9   14 ar   
    21   10   11 ar   
    22   10   76 1    
    23   11   12 ar   
    24   11   48 1    
    25   12   13 ar   
    26   12   77 1    
    27   13   14 ar   
    28   13   15 1    
    29   14   78 1    
    30   15   16 1    
    31   15   79 1    
    32   15   80 1    
    33   16   17 1    
    34   17   18 1    
    35   17   81 1    
    36   17   82 1    
    37   18   19 1    
    38   18   22 1    
    39   18   83 1    
    40   19   20 am   BACKBONE|DICT|INTERRES
    41   19   21 2    
    42   20   84 1    
    43   20   85 1    
    44   22   23 am   BACKBONE|DICT|INTERRES
    45   22   86 1    
    46   23   24 2    
    47   23   25 1    
    48   25   26 1    
    49   25   27 1    
    50   25   87 1    
    51   26   88 1    
    52   26   89 1    
    53   26   90 1    
    54   27   28 am   BACKBONE|DICT|INTERRES
    55   27   91 1    
    56   28   29 2    
    57   28   30 1    
    58   30   31 1    
    59   30   32 1    
    60   30   92 1    
    61   31   93 1    
    62   31   94 1    
    63   31   95 1    
    64   32   33 am   BACKBONE|DICT|INTERRES
    65   32   96 1    
    66   33   34 2    
    67   33   35 1    
    68   35   36 1    
    69   35   37 1    
    70   35   97 1    
    71   36   98 1    
    72   36   99 1    
    73   36  100 1    
    74   37   38 am   BACKBONE|DICT|INTERRES
    75   37  101 1    
    76   38   39 2    
    77   38   40 1    
    78   40   41 1    
    79   40   42 1    
    80   40  102 1    
    81   41  103 1    
    82   41  104 1    
    83   41  105 1    
    84   42   43 am   BACKBONE|DICT|INTERRES
    85   42  106 1    
    86   43   44 2    
    87   43   45 1    
    88   45   46 1    
    89   45   49 1    
    90   45  107 1    
    91   46   47 1    
    92   46  108 1    
    93   46  109 1    
    94   47   48 1    
    95   48  110 1    
    96   48  111 1    
    97   49   50 am   BACKBONE|DICT|INTERRES
    98   49  112 1    
    99   50   51 2    
   100   50   52 1    
   101   52   53 1    
   102   52   54 1    
   103   52  113 1    
   104   53  114 1    
   105   53  115 1    
   106   53  116 1    
   107   54   55 am   BACKBONE|DICT|INTERRES
   108   54  117 1    
   109   55   56 2    
   110   55   57 1    
   111   57   58 1    
   112   57   59 1    
   113   57  118 1    
   114   58  119 1    
   115   58  120 1    
   116   58  121 1    
   117   59   60 am   BACKBONE|DICT|INTERRES
   118   59  122 1    
   119   60   61 2    
   120   60   62 1    
   121   62   63 1    
   122   62   64 1    
   123   62  123 1    
   124   63  124 1    
   125   63  125 1    
   126   63  126 1    
   127   64   65 am   BACKBONE|DICT|INTERRES
   128   64  127 1    
   129   65   66 2    
@<TRIPOS>SUBSTRUCTURE
     1 UNK         1 GROUP             0       ****    0 ROOT    
