@<TRIPOS>MOLECULE
3R135
127   129    1
SMALL
USER_CHARGES


@<TRIPOS>ATOM
      1 CA        -82.5647   27.8009  -70.2598 C.3       0 UNK        -0.1998 
      2 C         -83.1767   27.7056  -71.6494 C.2       0 UNK         0.4909 
      3 O         -84.2542   27.1320  -71.8078 O.2       0 UNK        -0.5240 
      4 N         -82.4942   28.2627  -72.6587 N.am      1 UNK        -0.4739 
      5 CA        -82.9077   28.2555  -74.0679 C.3       1 UNK         0.0864 
      6 C6        -82.2094   29.3868  -74.8706 C.3       11 UNK        -0.0881 
      7 S7        -80.4088   29.1679  -75.0949 S.3       11 UNK        -0.2682 
      8 C8        -79.7024   30.1287  -73.7207 C.3       11 UNK         0.0289 
      9 C9        -78.5575   29.3691  -73.0661 C.ar      11 UNK        -0.0687 
     10 C10       -78.8318   28.2701  -72.2474 C.ar      11 UNK        -0.0823 
     11 C11       -77.7989   27.5600  -71.6342 C.ar      11 UNK        -0.0830 
     12 C12       -76.4765   27.9617  -71.8340 C.ar      11 UNK        -0.1021 
     13 C13       -76.1842   29.0470  -72.6652 C.ar      11 UNK        -0.0753 
     14 C14       -77.2281   29.7509  -73.2769 C.ar      11 UNK        -0.0933 
     15 C15       -74.7367   29.4272  -72.9287 C.3       11 UNK         0.0166 
     16 S16       -74.2516   30.9007  -71.9771 S.3       11 UNK        -0.2615 
     17 C17       -72.4549   30.6438  -71.7691 C.3       11 UNK        -0.0865 
     18 CA        -71.6049   31.2275  -72.9283 C.3       10 UNK         0.0862 
     19 C         -70.0908   31.2148  -72.5582 C.2       10 UNK         0.5551 
     20 N         -69.2412   30.4344  -73.2175 N.am      10 UNK        -0.7319 
     21 O         -69.6800   31.9344  -71.6512 O.2       10 UNK        -0.5018 
     22 N         -71.9185   30.5659  -74.2022 N.am      10 UNK        -0.4509 
     23 C         -71.6044   31.0272  -75.4182 C.2       10 UNK         0.4899 
     24 O         -71.1194   32.1412  -75.6221 O.2       10 UNK        -0.4839 
     25 CA        -71.8747   30.0747  -76.6028 C.3       9 UNK         0.0222 
     26 CB        -70.9059   30.3119  -77.7802 C.3       9 UNK        -0.1966 
     27 N         -71.8977   28.6493  -76.2356 N.am      9 UNK        -0.4218 
     28 C         -70.9073   27.9372  -75.6679 C.2       9 UNK         0.5020 
     29 O         -69.8226   28.4222  -75.3420 O.2       9 UNK        -0.5274 
     30 CA        -71.1694   26.4494  -75.3600 C.3       8 UNK         0.0270 
     31 CB        -71.3379   26.2447  -73.8450 C.3       8 UNK        -0.1976 
     32 N         -72.3391   25.9046  -76.0549 N.am      8 UNK        -0.4313 
     33 C         -72.3776   25.6325  -77.3691 C.2       8 UNK         0.5041 
     34 O         -71.3923   25.7110  -78.1041 O.2       8 UNK        -0.5577 
     35 CA        -73.7326   25.2324  -77.9894 C.3       7 UNK         0.0284 
     36 CB        -73.7798   23.7150  -78.2320 C.3       7 UNK        -0.1958 
     37 N         -74.9128   25.6240  -77.2127 N.am      7 UNK        -0.4454 
     38 C         -75.2247   26.8654  -76.8113 C.2       7 UNK         0.5089 
     39 O         -74.5640   27.8658  -77.0913 O.2       7 UNK        -0.5125 
     40 CA        -76.4395   27.0005  -75.8783 C.3       6 UNK         0.0408 
     41 CB        -77.7012   27.2536  -76.7105 C.3       6 UNK        -0.1791 
     42 N         -76.6361   25.8391  -74.9976 N.am      6 UNK        -0.4762 
     43 C         -75.7216   25.3893  -74.1197 C.2       6 UNK         0.5007 
     44 O         -74.6244   25.9256  -73.9564 O.2       6 UNK        -0.5032 
     45 CA        -76.0196   24.0859  -73.3567 C.3       5 UNK         0.0783 
     46 C46       -76.5381   24.3098  -71.9145 C.3       11 UNK        -0.0857 
     47 S47       -78.2777   24.8432  -71.7724 S.3       11 UNK        -0.2512 
     48 C48       -78.1253   26.3543  -70.7689 C.3       11 UNK         0.0225 
     49 N         -76.8614   23.1816  -74.1452 N.am      5 UNK        -0.4615 
     50 C         -76.3709   22.2249  -74.9451 C.2       4 UNK         0.5053 
     51 O         -75.1711   21.9734  -75.0590 O.2       4 UNK        -0.5105 
     52 CA        -77.3804   21.4102  -75.7697 C.3       4 UNK         0.0263 
     53 CB        -77.9769   20.2746  -74.9224 C.3       4 UNK        -0.1981 
     54 N         -78.4630   22.2125  -76.3409 N.am      4 UNK        -0.4224 
     55 C         -78.3053   23.2256  -77.2053 C.2       3 UNK         0.4895 
     56 O         -77.2138   23.6281  -77.6090 O.2       3 UNK        -0.5091 
     57 CA        -79.5905   23.9195  -77.6909 C.3       3 UNK         0.0250 
     58 CB        -80.1175   23.2338  -78.9616 C.3       3 UNK        -0.1996 
     59 N         -80.6645   23.9859  -76.6924 N.am      3 UNK        -0.4254 
     60 C         -80.5642   24.5570  -75.4839 C.2       2 UNK         0.5004 
     61 O         -79.5175   25.0193  -75.0244 O.2       2 UNK        -0.5226 
     62 CA        -81.8374   24.5745  -74.6293 C.3       2 UNK         0.0269 
     63 CB        -81.7138   23.5951  -73.4509 C.3       2 UNK        -0.1926 
     64 N         -82.0742   25.9217  -74.1146 N.am      2 UNK        -0.4687 
     65 C         -82.7795   26.8696  -74.7496 C.2       1 UNK         0.5165 
     66 O         -83.3369   26.6824  -75.8329 O.2       1 UNK        -0.5079 
     67 H67       -82.3106   26.8066  -69.8933 H         1 UNK         0.0900 
     68 H68       -83.2770   28.2475  -69.5665 H         1 UNK         0.0900 
     69 H69       -81.6600   28.4086  -70.2506 H         1 UNK         0.0900 
     70 H70       -81.6273   28.7412  -72.4701 H         1 UNK         0.2959 
     71 H71       -83.9769   28.4803  -74.0807 H         1 UNK         0.1079 
     72 H72       -82.4022   30.3535  -74.4027 H         1 UNK         0.0837 
     73 H73       -82.6563   29.4587  -75.8640 H         1 UNK         0.0837 
     74 H74       -80.4629   30.3479  -72.9707 H         1 UNK         0.0685 
     75 H75       -79.3620   31.0931  -74.1007 H         1 UNK         0.0685 
     76 H76       -79.8501   27.9483  -72.0984 H         1 UNK         0.1434 
     77 H77       -75.6711   27.4129  -71.3662 H         1 UNK         0.1329 
     78 H78       -77.0023   30.5899  -73.9206 H         1 UNK         0.1335 
     79 H79       -74.6005   29.6215  -73.9935 H         1 UNK         0.0680 
     80 H80       -74.0836   28.5880  -72.6843 H         1 UNK         0.0680 
     81 H81       -72.1819   31.1238  -70.8270 H         1 UNK         0.1032 
     82 H82       -72.2429   29.5826  -71.6266 H         1 UNK         0.1032 
     83 H83       -71.8756   32.2796  -73.0370 H         1 UNK         0.0461 
     84 H84       -68.2669   30.4460  -72.9620 H         1 UNK         0.3453 
     85 H85       -69.5543   29.8295  -73.9700 H         1 UNK         0.3453 
     86 H86       -72.2990   29.6355  -74.1370 H         1 UNK         0.2984 
     87 H87       -72.8814   30.3089  -76.9518 H         1 UNK         0.0554 
     88 H88       -71.1230   29.6429  -78.6129 H         1 UNK         0.0847 
     89 H89       -69.8674   30.1556  -77.4863 H         1 UNK         0.0847 
     90 H90       -70.9869   31.3320  -78.1575 H         1 UNK         0.0847 
     91 H91       -72.7673   28.1717  -76.4625 H         1 UNK         0.3141 
     92 H92       -70.2886   25.8900  -75.6823 H         1 UNK         0.0743 
     93 H93       -70.4411   26.5560  -73.3074 H         1 UNK         0.0784 
     94 H94       -72.1709   26.8254  -73.4476 H         1 UNK         0.0784 
     95 H95       -71.5133   25.1967  -73.6013 H         1 UNK         0.0784 
     96 H96       -73.1905   25.8195  -75.5087 H         1 UNK         0.3213 
     97 H97       -73.8017   25.7375  -78.9548 H         1 UNK         0.0855 
     98 H98       -73.7654   23.1573  -77.2946 H         1 UNK         0.0814 
     99 H99       -72.9247   23.3843  -78.8232 H         1 UNK         0.0814 
    100 H100      -74.6787   23.4278  -78.7781 H         1 UNK         0.0814 
    101 H101      -75.5635   24.8815  -76.9794 H         1 UNK         0.3105 
    102 H102      -76.2743   27.8665  -75.2373 H         1 UNK         0.0547 
    103 H103      -78.5971   27.2295  -76.0939 H         1 UNK         0.0837 
    104 H104      -77.6599   28.2331  -77.1879 H         1 UNK         0.0837 
    105 H105      -77.8141   26.5131  -77.5004 H         1 UNK         0.0837 
    106 H106      -77.5454   25.3870  -75.0390 H         1 UNK         0.3020 
    107 H107      -75.0401   23.6175  -73.2314 H         1 UNK         0.1245 
    108 H108      -75.8854   25.0063  -71.3864 H         1 UNK         0.0781 
    109 H109      -76.4536   23.3718  -71.3637 H         1 UNK         0.0781 
    110 H110      -77.3746   26.2191  -69.9888 H         1 UNK         0.0836 
    111 H111      -79.0693   26.5225  -70.2482 H         1 UNK         0.0836 
    112 H112      -77.8568   23.3583  -74.1215 H         1 UNK         0.3022 
    113 H113      -76.8343   20.9627  -76.6030 H         1 UNK         0.0747 
    114 H114      -78.6159   19.6253  -75.5212 H         1 UNK         0.0793 
    115 H115      -77.1896   19.6492  -74.4991 H         1 UNK         0.0793 
    116 H116      -78.5705   20.6580  -74.0913 H         1 UNK         0.0793 
    117 H117      -79.4033   21.9671  -76.0688 H         1 UNK         0.3047 
    118 H118      -79.3325   24.9457  -77.9511 H         1 UNK         0.0822 
    119 H119      -79.3451   23.1920  -79.7312 H         1 UNK         0.0807 
    120 H120      -80.9628   23.7766  -79.3853 H         1 UNK         0.0807 
    121 H121      -80.4383   22.2097  -78.7664 H         1 UNK         0.0807 
    122 H122      -81.5610   23.6203  -76.9804 H         1 UNK         0.2946 
    123 H123      -82.6889   24.2646  -75.2397 H         1 UNK         0.1144 
    124 H124      -81.5425   22.5772  -73.8035 H         1 UNK         0.0793 
    125 H125      -82.6242   23.5816  -72.8513 H         1 UNK         0.0793 
    126 H126      -80.8852   23.8555  -72.7924 H         1 UNK         0.0793 
    127 H127      -81.5974   26.1696  -73.2609 H         1 UNK         0.2896 
@<TRIPOS>BOND
     1    1    2 1    
     2    1   67 1    
     3    1   68 1    
     4    1   69 1    
     5    2    3 2    
     6    2    4 am   BACKBONE|DICT|INTERRES
     7    4    5 1    
     8    4   70 1    
     9    5    6 1    
    10    5   65 1    
    11    5   71 1    
    12    6    7 1    
    13    6   72 1    
    14    6   73 1    
    15    7    8 1    
    16    8    9 1    
    17    8   74 1    
    18    8   75 1    
    19    9   10 ar   
    20    9   14 ar   
    21   10   11 ar   
    22   10   76 1    
    23   11   12 ar   
    24   11   48 1    
    25   12   13 ar   
    26   12   77 1    
    27   13   14 ar   
    28   13   15 1    
    29   14   78 1    
    30   15   16 1    
    31   15   79 1    
    32   15   80 1    
    33   16   17 1    
    34   17   18 1    
    35   17   81 1    
    36   17   82 1    
    37   18   19 1    
    38   18   22 1    
    39   18   83 1    
    40   19   20 am   BACKBONE|DICT|INTERRES
    41   19   21 2    
    42   20   84 1    
    43   20   85 1    
    44   22   23 am   BACKBONE|DICT|INTERRES
    45   22   86 1    
    46   23   24 2    
    47   23   25 1    
    48   25   26 1    
    49   25   27 1    
    50   25   87 1    
    51   26   88 1    
    52   26   89 1    
    53   26   90 1    
    54   27   28 am   BACKBONE|DICT|INTERRES
    55   27   91 1    
    56   28   29 2    
    57   28   30 1    
    58   30   31 1    
    59   30   32 1    
    60   30   92 1    
    61   31   93 1    
    62   31   94 1    
    63   31   95 1    
    64   32   33 am   BACKBONE|DICT|INTERRES
    65   32   96 1    
    66   33   34 2    
    67   33   35 1    
    68   35   36 1    
    69   35   37 1    
    70   35   97 1    
    71   36   98 1    
    72   36   99 1    
    73   36  100 1    
    74   37   38 am   BACKBONE|DICT|INTERRES
    75   37  101 1    
    76   38   39 2    
    77   38   40 1    
    78   40   41 1    
    79   40   42 1    
    80   40  102 1    
    81   41  103 1    
    82   41  104 1    
    83   41  105 1    
    84   42   43 am   BACKBONE|DICT|INTERRES
    85   42  106 1    
    86   43   44 2    
    87   43   45 1    
    88   45   46 1    
    89   45   49 1    
    90   45  107 1    
    91   46   47 1    
    92   46  108 1    
    93   46  109 1    
    94   47   48 1    
    95   48  110 1    
    96   48  111 1    
    97   49   50 am   BACKBONE|DICT|INTERRES
    98   49  112 1    
    99   50   51 2    
   100   50   52 1    
   101   52   53 1    
   102   52   54 1    
   103   52  113 1    
   104   53  114 1    
   105   53  115 1    
   106   53  116 1    
   107   54   55 am   BACKBONE|DICT|INTERRES
   108   54  117 1    
   109   55   56 2    
   110   55   57 1    
   111   57   58 1    
   112   57   59 1    
   113   57  118 1    
   114   58  119 1    
   115   58  120 1    
   116   58  121 1    
   117   59   60 am   BACKBONE|DICT|INTERRES
   118   59  122 1    
   119   60   61 2    
   120   60   62 1    
   121   62   63 1    
   122   62   64 1    
   123   62  123 1    
   124   63  124 1    
   125   63  125 1    
   126   63  126 1    
   127   64   65 am   BACKBONE|DICT|INTERRES
   128   64  127 1    
   129   65   66 2    
@<TRIPOS>SUBSTRUCTURE
     1 UNK         1 GROUP             0       ****    0 ROOT    
