@<TRIPOS>MOLECULE
3R135
127   129    1
SMALL
USER_CHARGES


@<TRIPOS>ATOM
      1 CA        -83.5908   27.4725  -71.0062 C.3       0 UNK        -0.1998 
      2 C         -82.6809   27.4104  -72.2230 C.2       0 UNK         0.4909 
      3 O         -81.6785   26.6984  -72.1951 O.2       0 UNK        -0.5240 
      4 N         -83.0327   28.1413  -73.2906 N.am      1 UNK        -0.4739 
      5 CA        -82.3173   28.3045  -74.5705 C.3       1 UNK         0.0864 
      6 C6        -80.8911   28.8959  -74.4252 C.3       11 UNK        -0.0881 
      7 S7        -80.8943   30.5878  -73.7388 S.3       11 UNK        -0.2682 
      8 C8        -80.2493   30.3378  -72.0503 C.3       11 UNK         0.0289 
      9 C9        -78.8672   29.6949  -72.0232 C.ar      11 UNK        -0.0687 
     10 C10       -78.6512   28.5387  -71.2671 C.ar      11 UNK        -0.0823 
     11 C11       -77.3926   27.9292  -71.2411 C.ar      11 UNK        -0.0830 
     12 C12       -76.3490   28.4903  -71.9842 C.ar      11 UNK        -0.1021 
     13 C13       -76.5421   29.6555  -72.7336 C.ar      11 UNK        -0.0753 
     14 C14       -77.8051   30.2553  -72.7411 C.ar      11 UNK        -0.0933 
     15 C15       -75.4034   30.2642  -73.5484 C.3       11 UNK         0.0166 
     16 S16       -74.0743   30.9315  -72.4988 S.3       11 UNK        -0.2615 
     17 C17       -72.9491   29.4981  -72.3467 C.3       11 UNK        -0.0865 
     18 CA        -71.5706   29.7463  -73.0111 C.3       10 UNK         0.0862 
     19 C         -70.5652   28.6330  -72.6074 C.2       10 UNK         0.5551 
     20 N         -70.2901   27.6436  -73.4484 N.am      10 UNK        -0.7319 
     21 O         -70.0115   28.6787  -71.5117 O.2       10 UNK        -0.5018 
     22 N         -71.6796   29.9104  -74.4718 N.am      10 UNK        -0.4509 
     23 C         -71.3647   31.0276  -75.1425 C.2       10 UNK         0.4899 
     24 O         -71.0000   32.0745  -74.6046 O.2       10 UNK        -0.4839 
     25 CA        -71.4345   30.9474  -76.6764 C.3       9 UNK         0.0222 
     26 CB        -70.7915   32.1552  -77.3864 C.3       9 UNK        -0.1966 
     27 N         -70.7934   29.7120  -77.1156 N.am      9 UNK        -0.4218 
     28 C         -71.2129   28.9282  -78.1132 C.2       9 UNK         0.5020 
     29 O         -72.1149   29.2282  -78.8972 O.2       9 UNK        -0.5274 
     30 CA        -70.5445   27.5439  -78.2316 C.3       8 UNK         0.0270 
     31 CB        -69.1810   27.4347  -77.5090 C.3       8 UNK        -0.1976 
     32 N         -71.4482   26.4782  -77.7790 N.am      8 UNK        -0.4313 
     33 C         -72.0728   26.4034  -76.5944 C.2       8 UNK         0.5041 
     34 O         -71.9305   27.2216  -75.6783 O.2       8 UNK        -0.5577 
     35 CA        -72.9981   25.1962  -76.3821 C.3       7 UNK         0.0284 
     36 CB        -72.3175   24.1443  -75.4926 C.3       7 UNK        -0.1958 
     37 N         -74.2385   25.6284  -75.7460 N.am      7 UNK        -0.4454 
     38 C         -75.2171   26.3025  -76.3581 C.2       7 UNK         0.5089 
     39 O         -75.2502   26.5050  -77.5735 O.2       7 UNK        -0.5125 
     40 CA        -76.3289   26.8542  -75.4478 C.3       6 UNK         0.0408 
     41 CB        -77.4069   27.6382  -76.2164 C.3       6 UNK        -0.1791 
     42 N         -76.9809   25.8237  -74.6434 N.am      6 UNK        -0.4762 
     43 C         -76.4886   25.2568  -73.5336 C.2       6 UNK         0.5007 
     44 O         -75.3513   25.4591  -73.1044 O.2       6 UNK        -0.5032 
     45 CA        -77.4323   24.2909  -72.7995 C.3       5 UNK         0.0783 
     46 C46       -78.6402   25.0441  -72.1731 C.3       11 UNK        -0.0857 
     47 S47       -78.4336   25.4250  -70.4021 S.3       11 UNK        -0.2512 
     48 C48       -77.1204   26.6958  -70.3813 C.3       11 UNK         0.0225 
     49 N         -77.8625   23.2551  -73.7375 N.am      5 UNK        -0.4615 
     50 C         -77.1822   22.1307  -73.9983 C.2       4 UNK         0.5053 
     51 O         -76.1660   21.7903  -73.3928 O.2       4 UNK        -0.5105 
     52 CA        -77.7219   21.2255  -75.1221 C.3       4 UNK         0.0263 
     53 CB        -78.5920   20.1028  -74.5341 C.3       4 UNK        -0.1981 
     54 N         -78.4970   21.9580  -76.1262 N.am      4 UNK        -0.4224 
     55 C         -77.9783   22.8220  -77.0111 C.2       3 UNK         0.4895 
     56 O         -76.7712   23.0140  -77.1537 O.2       3 UNK        -0.5091 
     57 CA        -78.9770   23.6305  -77.8615 C.3       3 UNK         0.0250 
     58 CB        -79.1769   22.9657  -79.2329 C.3       3 UNK        -0.1996 
     59 N         -80.2859   23.8323  -77.2227 N.am      3 UNK        -0.4254 
     60 C         -80.4787   24.5070  -76.0812 C.2       2 UNK         0.5004 
     61 O         -79.5630   24.9967  -75.4163 O.2       2 UNK        -0.5226 
     62 CA        -81.9179   24.5880  -75.5526 C.3       2 UNK         0.0269 
     63 CB        -82.1897   23.4329  -74.5754 C.3       2 UNK        -0.1926 
     64 N         -82.1326   25.8553  -74.8561 N.am      2 UNK        -0.4687 
     65 C         -82.2847   27.0399  -75.4576 C.2       1 UNK         0.5165 
     66 O         -82.4014   27.1633  -76.6782 O.2       1 UNK        -0.5079 
     67 H67       -83.9800   26.4805  -70.7787 H         1 UNK         0.0900 
     68 H68       -83.0316   27.8260  -70.1404 H         1 UNK         0.0900 
     69 H69       -84.4361   28.1427  -71.1610 H         1 UNK         0.0900 
     70 H70       -83.8907   28.6725  -73.2345 H         1 UNK         0.2959 
     71 H71       -82.9089   29.0295  -75.1326 H         1 UNK         0.1079 
     72 H72       -80.4099   28.9627  -75.4028 H         1 UNK         0.0837 
     73 H73       -80.2559   28.2377  -73.8306 H         1 UNK         0.0837 
     74 H74       -80.1955   31.3051  -71.5494 H         1 UNK         0.0685 
     75 H75       -80.9671   29.7408  -71.4868 H         1 UNK         0.0685 
     76 H76       -79.4657   28.1086  -70.7000 H         1 UNK         0.1434 
     77 H77       -75.3790   28.0169  -71.9695 H         1 UNK         0.1329 
     78 H78       -77.9710   31.1543  -73.3187 H         1 UNK         0.1335 
     79 H79       -75.7808   31.0795  -74.1675 H         1 UNK         0.0680 
     80 H80       -74.9921   29.5342  -74.2443 H         1 UNK         0.0680 
     81 H81       -72.8314   29.2950  -71.2803 H         1 UNK         0.1032 
     82 H82       -73.4027   28.6040  -72.7758 H         1 UNK         0.1032 
     83 H83       -71.1666   30.6613  -72.5736 H         1 UNK         0.0461 
     84 H84       -70.8175   27.5292  -74.3116 H         1 UNK         0.3453 
     85 H85       -69.6278   26.9377  -73.1709 H         1 UNK         0.3453 
     86 H86       -71.9281   29.0726  -74.9913 H         1 UNK         0.2984 
     87 H87       -72.4957   30.9202  -76.9331 H         1 UNK         0.0554 
     88 H88       -71.2755   33.0870  -77.0911 H         1 UNK         0.0847 
     89 H89       -70.8842   32.0734  -78.4694 H         1 UNK         0.0847 
     90 H90       -69.7314   32.2451  -77.1465 H         1 UNK         0.0847 
     91 H91       -70.0620   29.3592  -76.5135 H         1 UNK         0.3141 
     92 H92       -70.3682   27.3790  -79.2958 H         1 UNK         0.0743 
     93 H93       -68.7028   26.4801  -77.7291 H         1 UNK         0.0784 
     94 H94       -68.4950   28.2158  -77.8398 H         1 UNK         0.0784 
     95 H95       -69.2732   27.5068  -76.4248 H         1 UNK         0.0784 
     96 H96       -71.6579   25.7708  -78.4700 H         1 UNK         0.3213 
     97 H97       -73.2389   24.7414  -77.3455 H         1 UNK         0.0855 
     98 H98       -72.0583   24.5511  -74.5138 H         1 UNK         0.0814 
     99 H99       -71.3957   23.7830  -75.9504 H         1 UNK         0.0814 
    100 H100      -72.9635   23.2800  -75.3358 H         1 UNK         0.0814 
    101 H101      -74.3042   25.5292  -74.7371 H         1 UNK         0.3105 
    102 H102      -75.8462   27.5492  -74.7630 H         1 UNK         0.0547 
    103 H103      -76.9643   28.4421  -76.8058 H         1 UNK         0.0837 
    104 H104      -77.9630   26.9949  -76.8993 H         1 UNK         0.0837 
    105 H105      -78.1184   28.0969  -75.5304 H         1 UNK         0.0837 
    106 H106      -77.9193   25.5573  -74.9398 H         1 UNK         0.3020 
    107 H107      -76.8611   23.8139  -71.9994 H         1 UNK         0.1245 
    108 H108      -79.5356   24.4233  -72.2332 H         1 UNK         0.0781 
    109 H109      -78.9056   25.9552  -72.7140 H         1 UNK         0.0781 
    110 H110      -76.1796   26.2249  -70.6680 H         1 UNK         0.0836 
    111 H111      -76.9841   27.0260  -69.3508 H         1 UNK         0.0836 
    112 H112      -78.6466   23.5016  -74.3286 H         1 UNK         0.3022 
    113 H113      -76.8628   20.7700  -75.6195 H         1 UNK         0.0747 
    114 H114      -78.9249   19.4112  -75.3083 H         1 UNK         0.0793 
    115 H115      -78.0327   19.5201  -73.8007 H         1 UNK         0.0793 
    116 H116      -79.4761   20.4968  -74.0309 H         1 UNK         0.0793 
    117 H117      -79.4997   21.8455  -76.1009 H         1 UNK         0.3047 
    118 H118      -78.5342   24.6164  -78.0209 H         1 UNK         0.0822 
    119 H119      -79.8020   23.5773  -79.8839 H         1 UNK         0.0807 
    120 H120      -79.6429   21.9837  -79.1427 H         1 UNK         0.0807 
    121 H121      -78.2219   22.8275  -79.7422 H         1 UNK         0.0807 
    122 H122      -81.0856   23.4445  -77.7033 H         1 UNK         0.2946 
    123 H123      -82.6150   24.5216  -76.3912 H         1 UNK         0.1144 
    124 H124      -83.2102   23.4707  -74.1936 H         1 UNK         0.0793 
    125 H125      -81.5131   23.4598  -73.7199 H         1 UNK         0.0793 
    126 H126      -82.0638   22.4655  -75.0632 H         1 UNK         0.0793 
    127 H127      -81.9634   25.8719  -73.8533 H         1 UNK         0.2896 
@<TRIPOS>BOND
     1    1    2 1    
     2    1   67 1    
     3    1   68 1    
     4    1   69 1    
     5    2    3 2    
     6    2    4 am   BACKBONE|DICT|INTERRES
     7    4    5 1    
     8    4   70 1    
     9    5    6 1    
    10    5   65 1    
    11    5   71 1    
    12    6    7 1    
    13    6   72 1    
    14    6   73 1    
    15    7    8 1    
    16    8    9 1    
    17    8   74 1    
    18    8   75 1    
    19    9   10 ar   
    20    9   14 ar   
    21   10   11 ar   
    22   10   76 1    
    23   11   12 ar   
    24   11   48 1    
    25   12   13 ar   
    26   12   77 1    
    27   13   14 ar   
    28   13   15 1    
    29   14   78 1    
    30   15   16 1    
    31   15   79 1    
    32   15   80 1    
    33   16   17 1    
    34   17   18 1    
    35   17   81 1    
    36   17   82 1    
    37   18   19 1    
    38   18   22 1    
    39   18   83 1    
    40   19   20 am   BACKBONE|DICT|INTERRES
    41   19   21 2    
    42   20   84 1    
    43   20   85 1    
    44   22   23 am   BACKBONE|DICT|INTERRES
    45   22   86 1    
    46   23   24 2    
    47   23   25 1    
    48   25   26 1    
    49   25   27 1    
    50   25   87 1    
    51   26   88 1    
    52   26   89 1    
    53   26   90 1    
    54   27   28 am   BACKBONE|DICT|INTERRES
    55   27   91 1    
    56   28   29 2    
    57   28   30 1    
    58   30   31 1    
    59   30   32 1    
    60   30   92 1    
    61   31   93 1    
    62   31   94 1    
    63   31   95 1    
    64   32   33 am   BACKBONE|DICT|INTERRES
    65   32   96 1    
    66   33   34 2    
    67   33   35 1    
    68   35   36 1    
    69   35   37 1    
    70   35   97 1    
    71   36   98 1    
    72   36   99 1    
    73   36  100 1    
    74   37   38 am   BACKBONE|DICT|INTERRES
    75   37  101 1    
    76   38   39 2    
    77   38   40 1    
    78   40   41 1    
    79   40   42 1    
    80   40  102 1    
    81   41  103 1    
    82   41  104 1    
    83   41  105 1    
    84   42   43 am   BACKBONE|DICT|INTERRES
    85   42  106 1    
    86   43   44 2    
    87   43   45 1    
    88   45   46 1    
    89   45   49 1    
    90   45  107 1    
    91   46   47 1    
    92   46  108 1    
    93   46  109 1    
    94   47   48 1    
    95   48  110 1    
    96   48  111 1    
    97   49   50 am   BACKBONE|DICT|INTERRES
    98   49  112 1    
    99   50   51 2    
   100   50   52 1    
   101   52   53 1    
   102   52   54 1    
   103   52  113 1    
   104   53  114 1    
   105   53  115 1    
   106   53  116 1    
   107   54   55 am   BACKBONE|DICT|INTERRES
   108   54  117 1    
   109   55   56 2    
   110   55   57 1    
   111   57   58 1    
   112   57   59 1    
   113   57  118 1    
   114   58  119 1    
   115   58  120 1    
   116   58  121 1    
   117   59   60 am   BACKBONE|DICT|INTERRES
   118   59  122 1    
   119   60   61 2    
   120   60   62 1    
   121   62   63 1    
   122   62   64 1    
   123   62  123 1    
   124   63  124 1    
   125   63  125 1    
   126   63  126 1    
   127   64   65 am   BACKBONE|DICT|INTERRES
   128   64  127 1    
   129   65   66 2    
@<TRIPOS>SUBSTRUCTURE
     1 UNK         1 GROUP             0       ****    0 ROOT    
