@<TRIPOS>MOLECULE
3R135
127   129    1
SMALL
USER_CHARGES


@<TRIPOS>ATOM
      1 CA        -82.2982   25.5417  -73.9507 C.3       0 UNK        -0.1998 
      2 C         -82.8178   26.9536  -73.7456 C.2       0 UNK         0.4909 
      3 O         -83.8719   27.3024  -74.2774 O.2       0 UNK        -0.5240 
      4 N         -82.0897   27.7583  -72.9619 N.am      1 UNK        -0.4739 
      5 CA        -82.4532   29.1353  -72.6090 C.3       1 UNK         0.0864 
      6 C6        -81.6525   29.7017  -71.4107 C.3       11 UNK        -0.0881 
      7 S7        -81.7302   28.6026  -69.9519 S.3       11 UNK        -0.2682 
      8 C8        -79.9924   28.5253  -69.4128 C.3       11 UNK         0.0289 
      9 C9        -79.0799   27.9044  -70.4612 C.ar      11 UNK        -0.0687 
     10 C10       -79.0782   26.5215  -70.6740 C.ar      11 UNK        -0.0823 
     11 C11       -78.2187   25.9529  -71.6201 C.ar      11 UNK        -0.0830 
     12 C12       -77.3729   26.7798  -72.3656 C.ar      11 UNK        -0.1021 
     13 C13       -77.3633   28.1603  -72.1566 C.ar      11 UNK        -0.0753 
     14 C14       -78.2140   28.7162  -71.1996 C.ar      11 UNK        -0.0933 
     15 C15       -76.4408   29.0532  -72.9662 C.3       11 UNK         0.0166 
     16 S16       -74.7826   29.1486  -72.2282 S.3       11 UNK        -0.2615 
     17 C17       -73.9912   30.5001  -73.1771 C.3       11 UNK        -0.0865 
     18 CA        -74.2890   30.5352  -74.7025 C.3       10 UNK         0.0862 
     19 C         -73.5610   31.7364  -75.3773 C.2       10 UNK         0.5551 
     20 N         -72.6257   31.5290  -76.2977 N.am      10 UNK        -0.7319 
     21 O         -73.8566   32.8847  -75.0564 O.2       10 UNK        -0.5018 
     22 N         -74.0268   29.2333  -75.3306 N.am      10 UNK        -0.4509 
     23 C         -74.4986   28.8374  -76.5195 C.2       10 UNK         0.4899 
     24 O         -75.3075   29.4861  -77.1843 O.2       10 UNK        -0.4839 
     25 CA        -73.9634   27.4914  -77.0508 C.3       9 UNK         0.0222 
     26 CB        -74.0413   27.3800  -78.5868 C.3       9 UNK        -0.1966 
     27 N         -72.6143   27.1521  -76.5731 N.am      9 UNK        -0.4218 
     28 C         -71.4952   27.8874  -76.6926 C.2       9 UNK         0.5020 
     29 O         -71.4541   28.9682  -77.2826 O.2       9 UNK        -0.5274 
     30 CA        -70.2212   27.3893  -75.9810 C.3       8 UNK         0.0270 
     31 CB        -69.8065   28.3814  -74.8794 C.3       8 UNK        -0.1976 
     32 N         -70.3711   26.0621  -75.3788 N.am      8 UNK        -0.4313 
     33 C         -70.2080   24.9023  -76.0280 C.2       8 UNK         0.5041 
     34 O         -69.8401   24.8176  -77.2001 O.2       8 UNK        -0.5577 
     35 CA        -70.5374   23.6180  -75.2422 C.3       7 UNK         0.0284 
     36 CB        -69.2702   23.0558  -74.5774 C.3       7 UNK        -0.1958 
     37 N         -71.5918   23.7757  -74.2285 N.am      7 UNK        -0.4454 
     38 C         -72.8498   24.1543  -74.4903 C.2       7 UNK         0.5089 
     39 O         -73.2405   24.5017  -75.6063 O.2       7 UNK        -0.5125 
     40 CA        -73.8229   24.2164  -73.3067 C.3       6 UNK         0.0408 
     41 CB        -73.9140   25.6546  -72.7751 C.3       6 UNK        -0.1791 
     42 N         -75.1414   23.7916  -73.7704 N.am      6 UNK        -0.4762 
     43 C         -75.6052   22.5351  -73.7049 C.2       6 UNK         0.5007 
     44 O         -75.0614   21.6375  -73.0603 O.2       6 UNK        -0.5032 
     45 CA        -76.8713   22.2139  -74.5291 C.3       5 UNK         0.0783 
     46 C46       -78.1624   22.2949  -73.6688 C.3       11 UNK        -0.0857 
     47 S47       -78.8201   23.9873  -73.4566 S.3       11 UNK        -0.2512 
     48 C48       -78.1700   24.4463  -71.8235 C.3       11 UNK         0.0225 
     49 N         -76.9545   23.0465  -75.7328 N.am      5 UNK        -0.4615 
     50 C         -76.1294   22.9871  -76.7849 C.2       4 UNK         0.5053 
     51 O         -75.3242   22.0703  -76.9521 O.2       4 UNK        -0.5105 
     52 CA        -76.1953   24.1417  -77.8115 C.3       4 UNK         0.0263 
     53 CB        -76.0204   23.6340  -79.2541 C.3       4 UNK        -0.1981 
     54 N         -77.4103   24.9661  -77.7462 N.am      4 UNK        -0.4224 
     55 C         -77.7390   25.8378  -76.7827 C.2       3 UNK         0.4895 
     56 O         -77.0419   26.0637  -75.7902 O.2       3 UNK        -0.5091 
     57 CA        -79.1081   26.5130  -76.9338 C.3       3 UNK         0.0250 
     58 CB        -80.2488   25.4739  -76.9160 C.3       3 UNK        -0.1996 
     59 N         -79.2988   27.4904  -75.8629 N.am      3 UNK        -0.4254 
     60 C         -80.1567   28.5161  -75.9132 C.2       2 UNK         0.5004 
     61 O         -80.9015   28.7367  -76.8723 O.2       2 UNK        -0.5226 
     62 CA        -80.1582   29.4814  -74.7169 C.3       2 UNK         0.0269 
     63 CB        -79.0385   30.5205  -74.8995 C.3       2 UNK        -0.1926 
     64 N         -81.4337   30.2026  -74.6673 N.am      2 UNK        -0.4687 
     65 C         -82.4607   30.1176  -73.8057 C.2       1 UNK         0.5165 
     66 O         -83.4514   30.8323  -73.9541 O.2       1 UNK        -0.5079 
     67 H67       -82.5312   25.1908  -74.9552 H         1 UNK         0.0900 
     68 H68       -82.7600   24.8614  -73.2359 H         1 UNK         0.0900 
     69 H69       -81.2190   25.5009  -73.8179 H         1 UNK         0.0900 
     70 H70       -81.2598   27.3995  -72.5112 H         1 UNK         0.2959 
     71 H71       -83.4923   29.0815  -72.2744 H         1 UNK         0.1079 
     72 H72       -80.6179   29.8897  -71.6931 H         1 UNK         0.0837 
     73 H73       -82.0571   30.6711  -71.1132 H         1 UNK         0.0837 
     74 H74       -79.9356   27.9390  -68.4946 H         1 UNK         0.0685 
     75 H75       -79.6559   29.5300  -69.1518 H         1 UNK         0.0685 
     76 H76       -79.7378   25.8911  -70.0929 H         1 UNK         0.1434 
     77 H77       -76.7160   26.3452  -73.1059 H         1 UNK         0.1329 
     78 H78       -78.2008   29.7843  -71.0299 H         1 UNK         0.1335 
     79 H79       -76.8553   30.0599  -73.0264 H         1 UNK         0.0680 
     80 H80       -76.3726   28.6706  -73.9852 H         1 UNK         0.0680 
     81 H81       -72.9149   30.4299  -73.0085 H         1 UNK         0.1032 
     82 H82       -74.2999   31.4412  -72.7176 H         1 UNK         0.1032 
     83 H83       -75.3519   30.7455  -74.8301 H         1 UNK         0.0461 
     84 H84       -72.1718   32.3222  -76.7212 H         1 UNK         0.3453 
     85 H85       -72.3646   30.5911  -76.5840 H         1 UNK         0.3453 
     86 H86       -73.3733   28.6353  -74.8499 H         1 UNK         0.2984 
     87 H87       -74.6206   26.7336  -76.6277 H         1 UNK         0.0554 
     88 H88       -73.6869   26.4087  -78.9317 H         1 UNK         0.0847 
     89 H89       -73.4443   28.1498  -79.0767 H         1 UNK         0.0847 
     90 H90       -75.0687   27.4897  -78.9362 H         1 UNK         0.0847 
     91 H91       -72.5536   26.2487  -76.1116 H         1 UNK         0.3141 
     92 H92       -69.4249   27.3569  -76.7276 H         1 UNK         0.0743 
     93 H93       -69.6371   29.3775  -75.2912 H         1 UNK         0.0784 
     94 H94       -70.5716   28.4752  -74.1075 H         1 UNK         0.0784 
     95 H95       -68.8785   28.0733  -74.3973 H         1 UNK         0.0784 
     96 H96       -70.6558   26.0281  -74.4106 H         1 UNK         0.3213 
     97 H97       -70.8947   22.8840  -75.9681 H         1 UNK         0.0855 
     98 H98       -68.8813   23.7292  -73.8126 H         1 UNK         0.0814 
     99 H99       -68.4779   22.9062  -75.3125 H         1 UNK         0.0814 
    100 H100      -69.4608   22.0892  -74.1106 H         1 UNK         0.0814 
    101 H101      -71.3495   23.5219  -73.2808 H         1 UNK         0.3105 
    102 H102      -73.4695   23.5647  -72.5050 H         1 UNK         0.0547 
    103 H103      -74.2620   26.3486  -73.5417 H         1 UNK         0.0837 
    104 H104      -74.5974   25.7210  -71.9285 H         1 UNK         0.0837 
    105 H105      -72.9427   26.0104  -72.4299 H         1 UNK         0.0837 
    106 H106      -75.6235   24.4384  -74.3813 H         1 UNK         0.3020 
    107 H107      -76.7595   21.1780  -74.8579 H         1 UNK         0.1245 
    108 H108      -78.0251   21.8210  -72.6946 H         1 UNK         0.0781 
    109 H109      -78.9455   21.7157  -74.1602 H         1 UNK         0.0781 
    110 H110      -77.1370   24.1127  -71.7224 H         1 UNK         0.0836 
    111 H111      -78.7397   23.9261  -71.0521 H         1 UNK         0.0836 
    112 H112      -77.5659   23.8478  -75.6567 H         1 UNK         0.3022 
    113 H113      -75.3444   24.7851  -77.5866 H         1 UNK         0.0747 
    114 H114      -76.0017   24.4595  -79.9660 H         1 UNK         0.0793 
    115 H115      -75.0802   23.0933  -79.3714 H         1 UNK         0.0793 
    116 H116      -76.8251   22.9566  -79.5426 H         1 UNK         0.0793 
    117 H117      -78.0662   24.8295  -78.5020 H         1 UNK         0.3047 
    118 H118      -79.1094   27.0381  -77.8916 H         1 UNK         0.0822 
    119 H119      -80.1786   24.7868  -77.7595 H         1 UNK         0.0807 
    120 H120      -81.2264   25.9512  -76.9826 H         1 UNK         0.0807 
    121 H121      -80.2299   24.8732  -76.0070 H         1 UNK         0.0807 
    122 H122      -78.6553   27.3833  -75.0878 H         1 UNK         0.2946 
    123 H123      -79.9649   28.9216  -73.8026 H         1 UNK         0.1144 
    124 H124      -78.0763   30.0429  -75.0844 H         1 UNK         0.0793 
    125 H125      -78.9321   31.1467  -74.0136 H         1 UNK         0.0793 
    126 H126      -79.2310   31.1762  -75.7498 H         1 UNK         0.0793 
    127 H127      -81.5764   30.8044  -75.4653 H         1 UNK         0.2896 
@<TRIPOS>BOND
     1    1    2 1    
     2    1   67 1    
     3    1   68 1    
     4    1   69 1    
     5    2    3 2    
     6    2    4 am   BACKBONE|DICT|INTERRES
     7    4    5 1    
     8    4   70 1    
     9    5    6 1    
    10    5   65 1    
    11    5   71 1    
    12    6    7 1    
    13    6   72 1    
    14    6   73 1    
    15    7    8 1    
    16    8    9 1    
    17    8   74 1    
    18    8   75 1    
    19    9   10 ar   
    20    9   14 ar   
    21   10   11 ar   
    22   10   76 1    
    23   11   12 ar   
    24   11   48 1    
    25   12   13 ar   
    26   12   77 1    
    27   13   14 ar   
    28   13   15 1    
    29   14   78 1    
    30   15   16 1    
    31   15   79 1    
    32   15   80 1    
    33   16   17 1    
    34   17   18 1    
    35   17   81 1    
    36   17   82 1    
    37   18   19 1    
    38   18   22 1    
    39   18   83 1    
    40   19   20 am   BACKBONE|DICT|INTERRES
    41   19   21 2    
    42   20   84 1    
    43   20   85 1    
    44   22   23 am   BACKBONE|DICT|INTERRES
    45   22   86 1    
    46   23   24 2    
    47   23   25 1    
    48   25   26 1    
    49   25   27 1    
    50   25   87 1    
    51   26   88 1    
    52   26   89 1    
    53   26   90 1    
    54   27   28 am   BACKBONE|DICT|INTERRES
    55   27   91 1    
    56   28   29 2    
    57   28   30 1    
    58   30   31 1    
    59   30   32 1    
    60   30   92 1    
    61   31   93 1    
    62   31   94 1    
    63   31   95 1    
    64   32   33 am   BACKBONE|DICT|INTERRES
    65   32   96 1    
    66   33   34 2    
    67   33   35 1    
    68   35   36 1    
    69   35   37 1    
    70   35   97 1    
    71   36   98 1    
    72   36   99 1    
    73   36  100 1    
    74   37   38 am   BACKBONE|DICT|INTERRES
    75   37  101 1    
    76   38   39 2    
    77   38   40 1    
    78   40   41 1    
    79   40   42 1    
    80   40  102 1    
    81   41  103 1    
    82   41  104 1    
    83   41  105 1    
    84   42   43 am   BACKBONE|DICT|INTERRES
    85   42  106 1    
    86   43   44 2    
    87   43   45 1    
    88   45   46 1    
    89   45   49 1    
    90   45  107 1    
    91   46   47 1    
    92   46  108 1    
    93   46  109 1    
    94   47   48 1    
    95   48  110 1    
    96   48  111 1    
    97   49   50 am   BACKBONE|DICT|INTERRES
    98   49  112 1    
    99   50   51 2    
   100   50   52 1    
   101   52   53 1    
   102   52   54 1    
   103   52  113 1    
   104   53  114 1    
   105   53  115 1    
   106   53  116 1    
   107   54   55 am   BACKBONE|DICT|INTERRES
   108   54  117 1    
   109   55   56 2    
   110   55   57 1    
   111   57   58 1    
   112   57   59 1    
   113   57  118 1    
   114   58  119 1    
   115   58  120 1    
   116   58  121 1    
   117   59   60 am   BACKBONE|DICT|INTERRES
   118   59  122 1    
   119   60   61 2    
   120   60   62 1    
   121   62   63 1    
   122   62   64 1    
   123   62  123 1    
   124   63  124 1    
   125   63  125 1    
   126   63  126 1    
   127   64   65 am   BACKBONE|DICT|INTERRES
   128   64  127 1    
   129   65   66 2    
@<TRIPOS>SUBSTRUCTURE
     1 UNK         1 GROUP             0       ****    0 ROOT    
