@<TRIPOS>MOLECULE
3R135
127   129    1
SMALL
USER_CHARGES


@<TRIPOS>ATOM
      1 CA        -85.0320   26.3868  -74.2346 C.3       0 UNK        -0.1998 
      2 C         -84.0584   27.5457  -74.3877 C.2       0 UNK         0.4909 
      3 O         -84.4554   28.6286  -74.8198 O.2       0 UNK        -0.5240 
      4 N         -82.7874   27.3249  -74.0430 N.am      1 UNK        -0.4739 
      5 CA        -81.7019   28.3005  -74.1247 C.3       1 UNK         0.0864 
      6 C6        -81.6905   29.3191  -72.9488 C.3       11 UNK        -0.0881 
      7 S7        -81.8794   28.5844  -71.2839 S.3       11 UNK        -0.2682 
      8 C8        -80.4703   29.3028  -70.3717 C.3       11 UNK         0.0289 
      9 C9        -79.1130   28.7339  -70.7754 C.ar      11 UNK        -0.0687 
     10 C10       -78.9430   27.3650  -70.9995 C.ar      11 UNK        -0.0823 
     11 C11       -77.6985   26.8387  -71.3557 C.ar      11 UNK        -0.0830 
     12 C12       -76.6019   27.7031  -71.4733 C.ar      11 UNK        -0.1021 
     13 C13       -76.7507   29.0724  -71.2263 C.ar      11 UNK        -0.0753 
     14 C14       -78.0072   29.5806  -70.8834 C.ar      11 UNK        -0.0933 
     15 C15       -75.5569   30.0101  -71.3109 C.3       11 UNK         0.0166 
     16 S16       -75.5428   30.9104  -72.8889 S.3       11 UNK        -0.2615 
     17 C17       -74.2048   32.1205  -72.6112 C.3       11 UNK        -0.0865 
     18 CA        -72.8894   31.7079  -73.3179 C.3       10 UNK         0.0862 
     19 C         -71.8959   32.8995  -73.3618 C.2       10 UNK         0.5551 
     20 N         -71.8868   33.6579  -74.4483 N.am      10 UNK        -0.7319 
     21 O         -71.1583   33.1543  -72.4122 O.2       10 UNK        -0.5018 
     22 N         -72.2944   30.5236  -72.6787 N.am      10 UNK        -0.4509 
     23 C         -71.3347   29.7164  -73.1517 C.2       10 UNK         0.4899 
     24 O         -70.8764   28.8029  -72.4650 O.2       10 UNK        -0.4839 
     25 CA        -70.7697   29.9071  -74.5794 C.3       9 UNK         0.0222 
     26 CB        -69.3276   30.4391  -74.5217 C.3       9 UNK        -0.1966 
     27 N         -70.7884   28.6503  -75.3315 N.am      9 UNK        -0.4218 
     28 C         -71.8972   27.9697  -75.6528 C.2       9 UNK         0.5020 
     29 O         -73.0400   28.3497  -75.3826 O.2       9 UNK        -0.5274 
     30 CA        -71.6791   26.6285  -76.3768 C.3       8 UNK         0.0270 
     31 CB        -71.1864   25.5572  -75.3894 C.3       8 UNK        -0.1976 
     32 N         -72.9106   26.1589  -77.0151 N.am      8 UNK        -0.4313 
     33 C         -73.4527   26.7055  -78.1137 C.2       8 UNK         0.5041 
     34 O         -72.8908   27.5737  -78.7857 O.2       8 UNK        -0.5577 
     35 CA        -74.8628   26.2267  -78.5175 C.3       7 UNK         0.0284 
     36 CB        -75.1502   26.3825  -80.0263 C.3       7 UNK        -0.1958 
     37 N         -75.1799   24.8726  -78.0503 N.am      7 UNK        -0.4454 
     38 C         -74.5843   23.7259  -78.4124 C.2       7 UNK         0.5089 
     39 O         -73.7008   23.6533  -79.2679 O.2       7 UNK        -0.5125 
     40 CA        -75.0505   22.4441  -77.6900 C.3       6 UNK         0.0408 
     41 CB        -73.9597   21.3527  -77.6637 C.3       6 UNK        -0.1791 
     42 N         -75.5778   22.6743  -76.3381 N.am      6 UNK        -0.4762 
     43 C         -74.9368   23.2160  -75.2867 C.2       6 UNK         0.5007 
     44 O         -73.7806   23.6328  -75.3497 O.2       6 UNK        -0.5032 
     45 CA        -75.7271   23.3398  -73.9634 C.3       5 UNK         0.0783 
     46 C46       -75.3188   24.5999  -73.1476 C.3       11 UNK        -0.0857 
     47 S47       -75.9771   24.5661  -71.4455 S.3       11 UNK        -0.2512 
     48 C48       -77.6196   25.3413  -71.6411 C.3       11 UNK         0.0225 
     49 N         -77.1598   23.3493  -74.2610 N.am      5 UNK        -0.4615 
     50 C         -78.0508   22.3916  -73.9824 C.2       4 UNK         0.5053 
     51 O         -77.7712   21.3471  -73.3952 O.2       4 UNK        -0.5105 
     52 CA        -79.5018   22.6343  -74.4489 C.3       4 UNK         0.0263 
     53 CB        -80.4108   22.9516  -73.2499 C.3       4 UNK        -0.1981 
     54 N         -79.6229   23.7116  -75.4396 N.am      4 UNK        -0.4224 
     55 C         -79.2057   23.6219  -76.7133 C.2       3 UNK         0.4895 
     56 O         -78.7415   22.5936  -77.2055 O.2       3 UNK        -0.5091 
     57 CA        -79.2444   24.9067  -77.5646 C.3       3 UNK         0.0250 
     58 CB        -80.5669   24.9958  -78.3417 C.3       3 UNK        -0.1996 
     59 N         -79.0545   26.1368  -76.7880 N.am      3 UNK        -0.4254 
     60 C         -77.9857   26.4127  -76.0266 C.2       2 UNK         0.5004 
     61 O         -76.9973   25.6831  -75.9695 O.2       2 UNK        -0.5226 
     62 CA        -78.0322   27.6752  -75.1475 C.3       2 UNK         0.0269 
     63 CB        -77.1611   28.7798  -75.7645 C.3       2 UNK        -0.1926 
     64 N         -79.3789   28.2035  -74.8877 N.am      2 UNK        -0.4687 
     65 C         -80.3782   27.5365  -74.2900 C.2       1 UNK         0.5165 
     66 O         -80.2956   26.3579  -73.9273 O.2       1 UNK        -0.5079 
     67 H67       -85.8350   26.6601  -73.5507 H         1 UNK         0.0900 
     68 H68       -85.4742   26.1377  -75.1988 H         1 UNK         0.0900 
     69 H69       -84.5437   25.4939  -73.8442 H         1 UNK         0.0900 
     70 H70       -82.4848   26.4149  -73.7176 H         1 UNK         0.2959 
     71 H71       -81.8403   28.8635  -75.0509 H         1 UNK         0.1079 
     72 H72       -82.5182   30.0173  -73.0813 H         1 UNK         0.0837 
     73 H73       -80.7897   29.9348  -72.9821 H         1 UNK         0.0837 
     74 H74       -80.6161   29.1127  -69.3078 H         1 UNK         0.0685 
     75 H75       -80.4892   30.3868  -70.4956 H         1 UNK         0.0685 
     76 H76       -79.7938   26.7028  -70.9133 H         1 UNK         0.1434 
     77 H77       -75.6321   27.3191  -71.7562 H         1 UNK         0.1329 
     78 H78       -78.1192   30.6400  -70.6962 H         1 UNK         0.1335 
     79 H79       -75.5945   30.7201  -70.4832 H         1 UNK         0.0680 
     80 H80       -74.6254   29.4528  -71.2025 H         1 UNK         0.0680 
     81 H81       -74.5626   33.0756  -73.0017 H         1 UNK         0.1032 
     82 H82       -74.0453   32.2793  -71.5430 H         1 UNK         0.1032 
     83 H83       -73.1578   31.4453  -74.3423 H         1 UNK         0.0461 
     84 H84       -71.2572   34.4444  -74.4907 H         1 UNK         0.3453 
     85 H85       -72.5003   33.4686  -75.2258 H         1 UNK         0.3453 
     86 H86       -72.6048   30.3613  -71.7340 H         1 UNK         0.2984 
     87 H87       -71.3602   30.6169  -75.1547 H         1 UNK         0.0554 
     88 H88       -69.2823   31.3891  -73.9876 H         1 UNK         0.0847 
     89 H89       -68.9258   30.6126  -75.5201 H         1 UNK         0.0847 
     90 H90       -68.6607   29.7467  -74.0059 H         1 UNK         0.0847 
     91 H91       -69.8908   28.2484  -75.5599 H         1 UNK         0.3141 
     92 H92       -70.9218   26.7692  -77.1510 H         1 UNK         0.0743 
     93 H93       -71.8840   25.4238  -74.5612 H         1 UNK         0.0784 
     94 H94       -71.0618   24.5914  -75.8797 H         1 UNK         0.0784 
     95 H95       -70.2215   25.8284  -74.9595 H         1 UNK         0.0784 
     96 H96       -73.4292   25.4447  -76.5172 H         1 UNK         0.3213 
     97 H97       -75.5513   26.8889  -77.9913 H         1 UNK         0.0855 
     98 H98       -74.4467   25.8141  -80.6349 H         1 UNK         0.0814 
     99 H99       -75.0715   27.4263  -80.3327 H         1 UNK         0.0814 
    100 H100      -76.1577   26.0491  -80.2748 H         1 UNK         0.0814 
    101 H101      -75.8670   24.8383  -77.3012 H         1 UNK         0.3105 
    102 H102      -75.8871   22.0600  -78.2754 H         1 UNK         0.0547 
    103 H103      -74.3122   20.4501  -77.1650 H         1 UNK         0.0837 
    104 H104      -73.0608   21.6925  -77.1482 H         1 UNK         0.0837 
    105 H105      -73.6653   21.0667  -78.6742 H         1 UNK         0.0837 
    106 H106      -76.5431   22.4010  -76.2039 H         1 UNK         0.3020 
    107 H107      -75.4710   22.4530  -73.3795 H         1 UNK         0.1245 
    108 H108      -75.6324   25.5172  -73.6488 H         1 UNK         0.0781 
    109 H109      -74.2334   24.6659  -73.0535 H         1 UNK         0.0781 
    110 H110      -78.3007   24.8130  -70.9722 H         1 UNK         0.0836 
    111 H111      -78.0025   25.1800  -72.6465 H         1 UNK         0.0836 
    112 H112      -77.4615   24.1558  -74.7968 H         1 UNK         0.3022 
    113 H113      -79.8537   21.7075  -74.9070 H         1 UNK         0.0747 
    114 H114      -81.4519   23.0498  -73.5576 H         1 UNK         0.0793 
    115 H115      -80.3679   22.1561  -72.5047 H         1 UNK         0.0793 
    116 H116      -80.1209   23.8782  -72.7542 H         1 UNK         0.0793 
    117 H117      -79.9640   24.6036  -75.0961 H         1 UNK         0.3047 
    118 H118      -78.4256   24.8443  -78.2847 H         1 UNK         0.0822 
    119 H119      -80.5720   25.8485  -79.0210 H         1 UNK         0.0807 
    120 H120      -81.4234   25.0923  -77.6731 H         1 UNK         0.0807 
    121 H121      -80.7247   24.1018  -78.9469 H         1 UNK         0.0807 
    122 H122      -79.8192   26.7954  -76.7846 H         1 UNK         0.2946 
    123 H123      -77.6007   27.4018  -74.1833 H         1 UNK         0.1144 
    124 H124      -77.1324   29.6636  -75.1277 H         1 UNK         0.0793 
    125 H125      -77.5259   29.0836  -76.7463 H         1 UNK         0.0793 
    126 H126      -76.1304   28.4416  -75.8863 H         1 UNK         0.0793 
    127 H127      -79.5355   29.1625  -75.1637 H         1 UNK         0.2896 
@<TRIPOS>BOND
     1    1    2 1    
     2    1   67 1    
     3    1   68 1    
     4    1   69 1    
     5    2    3 2    
     6    2    4 am   BACKBONE|DICT|INTERRES
     7    4    5 1    
     8    4   70 1    
     9    5    6 1    
    10    5   65 1    
    11    5   71 1    
    12    6    7 1    
    13    6   72 1    
    14    6   73 1    
    15    7    8 1    
    16    8    9 1    
    17    8   74 1    
    18    8   75 1    
    19    9   10 ar   
    20    9   14 ar   
    21   10   11 ar   
    22   10   76 1    
    23   11   12 ar   
    24   11   48 1    
    25   12   13 ar   
    26   12   77 1    
    27   13   14 ar   
    28   13   15 1    
    29   14   78 1    
    30   15   16 1    
    31   15   79 1    
    32   15   80 1    
    33   16   17 1    
    34   17   18 1    
    35   17   81 1    
    36   17   82 1    
    37   18   19 1    
    38   18   22 1    
    39   18   83 1    
    40   19   20 am   BACKBONE|DICT|INTERRES
    41   19   21 2    
    42   20   84 1    
    43   20   85 1    
    44   22   23 am   BACKBONE|DICT|INTERRES
    45   22   86 1    
    46   23   24 2    
    47   23   25 1    
    48   25   26 1    
    49   25   27 1    
    50   25   87 1    
    51   26   88 1    
    52   26   89 1    
    53   26   90 1    
    54   27   28 am   BACKBONE|DICT|INTERRES
    55   27   91 1    
    56   28   29 2    
    57   28   30 1    
    58   30   31 1    
    59   30   32 1    
    60   30   92 1    
    61   31   93 1    
    62   31   94 1    
    63   31   95 1    
    64   32   33 am   BACKBONE|DICT|INTERRES
    65   32   96 1    
    66   33   34 2    
    67   33   35 1    
    68   35   36 1    
    69   35   37 1    
    70   35   97 1    
    71   36   98 1    
    72   36   99 1    
    73   36  100 1    
    74   37   38 am   BACKBONE|DICT|INTERRES
    75   37  101 1    
    76   38   39 2    
    77   38   40 1    
    78   40   41 1    
    79   40   42 1    
    80   40  102 1    
    81   41  103 1    
    82   41  104 1    
    83   41  105 1    
    84   42   43 am   BACKBONE|DICT|INTERRES
    85   42  106 1    
    86   43   44 2    
    87   43   45 1    
    88   45   46 1    
    89   45   49 1    
    90   45  107 1    
    91   46   47 1    
    92   46  108 1    
    93   46  109 1    
    94   47   48 1    
    95   48  110 1    
    96   48  111 1    
    97   49   50 am   BACKBONE|DICT|INTERRES
    98   49  112 1    
    99   50   51 2    
   100   50   52 1    
   101   52   53 1    
   102   52   54 1    
   103   52  113 1    
   104   53  114 1    
   105   53  115 1    
   106   53  116 1    
   107   54   55 am   BACKBONE|DICT|INTERRES
   108   54  117 1    
   109   55   56 2    
   110   55   57 1    
   111   57   58 1    
   112   57   59 1    
   113   57  118 1    
   114   58  119 1    
   115   58  120 1    
   116   58  121 1    
   117   59   60 am   BACKBONE|DICT|INTERRES
   118   59  122 1    
   119   60   61 2    
   120   60   62 1    
   121   62   63 1    
   122   62   64 1    
   123   62  123 1    
   124   63  124 1    
   125   63  125 1    
   126   63  126 1    
   127   64   65 am   BACKBONE|DICT|INTERRES
   128   64  127 1    
   129   65   66 2    
@<TRIPOS>SUBSTRUCTURE
     1 UNK         1 GROUP             0       ****    0 ROOT    
