@<TRIPOS>MOLECULE
3R135
127   129    1
SMALL
USER_CHARGES


@<TRIPOS>ATOM
      1 CA        -82.2687   30.5514  -75.4025 C.3       0 UNK        -0.1998 
      2 C         -81.5562   29.4110  -74.6917 C.2       0 UNK         0.4909 
      3 O         -80.6535   28.8025  -75.2659 O.2       0 UNK        -0.5240 
      4 N         -81.9493   29.1247  -73.4443 N.am      1 UNK        -0.4739 
      5 CA        -81.3868   28.0552  -72.6148 C.3       1 UNK         0.0864 
      6 C6        -81.6859   28.2513  -71.1031 C.3       11 UNK        -0.0881 
      7 S7        -81.2926   29.9304  -70.4934 S.3       11 UNK        -0.2682 
      8 C8        -79.6221   29.7259  -69.7879 C.3       11 UNK         0.0289 
      9 C9        -78.5720   29.3330  -70.8217 C.ar      11 UNK        -0.0687 
     10 C10       -77.6895   28.2828  -70.5513 C.ar      11 UNK        -0.0823 
     11 C11       -76.7311   27.8999  -71.4934 C.ar      11 UNK        -0.0830 
     12 C12       -76.6705   28.5626  -72.7219 C.ar      11 UNK        -0.1021 
     13 C13       -77.5267   29.6317  -72.9967 C.ar      11 UNK        -0.0753 
     14 C14       -78.4650   30.0210  -72.0364 C.ar      11 UNK        -0.0933 
     15 C15       -77.4581   30.3559  -74.3336 C.3       11 UNK         0.0166 
     16 S16       -76.1645   31.6409  -74.3561 S.3       11 UNK        -0.2615 
     17 C17       -74.6851   30.6824  -74.8361 C.3       11 UNK        -0.0865 
     18 CA        -73.4316   30.9239  -73.9536 C.3       10 UNK         0.0862 
     19 C         -73.6031   30.3775  -72.5046 C.2       10 UNK         0.5551 
     20 N         -73.1646   29.1575  -72.2139 N.am      10 UNK        -0.7319 
     21 O         -74.1005   31.0808  -71.6294 O.2       10 UNK        -0.5018 
     22 N         -72.2442   30.4062  -74.6482 N.am      10 UNK        -0.4509 
     23 C         -70.9670   30.5796  -74.2944 C.2       10 UNK         0.4899 
     24 O         -70.6068   31.2789  -73.3462 O.2       10 UNK        -0.4839 
     25 CA        -69.9237   29.8287  -75.1533 C.3       9 UNK         0.0222 
     26 CB        -68.4761   30.1406  -74.7285 C.3       9 UNK        -0.1966 
     27 N         -70.1163   28.3711  -75.1491 N.am      9 UNK        -0.4218 
     28 C         -71.1095   27.7069  -75.7572 C.2       9 UNK         0.5020 
     29 O         -71.9949   28.2685  -76.4078 O.2       9 UNK        -0.5274 
     30 CA        -71.1294   26.1778  -75.5754 C.3       8 UNK         0.0270 
     31 CB        -71.2709   25.7944  -74.0903 C.3       8 UNK        -0.1976 
     32 N         -72.2417   25.5858  -76.3220 N.am      8 UNK        -0.4313 
     33 C         -72.1932   25.2297  -77.6145 C.2       8 UNK         0.5041 
     34 O         -71.1582   25.2367  -78.2837 O.2       8 UNK        -0.5577 
     35 CA        -73.5089   24.7861  -78.2876 C.3       7 UNK         0.0284 
     36 CB        -73.5890   23.2526  -78.3590 C.3       7 UNK        -0.1958 
     37 N         -74.7026   25.2941  -77.6108 N.am      7 UNK        -0.4454 
     38 C         -75.0976   26.5744  -77.6016 C.2       7 UNK         0.5089 
     39 O         -74.5915   27.4487  -78.3047 O.2       7 UNK        -0.5125 
     40 CA        -76.2380   26.9555  -76.6371 C.3       6 UNK         0.0408 
     41 CB        -77.5218   27.2872  -77.4133 C.3       6 UNK        -0.1791 
     42 N         -76.5489   25.9401  -75.6264 N.am      6 UNK        -0.4762 
     43 C         -75.7357   25.5111  -74.6505 C.2       6 UNK         0.5007 
     44 O         -74.5872   25.9224  -74.4935 O.2       6 UNK        -0.5032 
     45 CA        -76.2892   24.3937  -73.7467 C.3       5 UNK         0.0783 
     46 C46       -77.2839   24.9442  -72.6891 C.3       11 UNK        -0.0857 
     47 S47       -76.5313   25.1533  -71.0442 S.3       11 UNK        -0.2512 
     48 C48       -75.7417   26.7876  -71.1774 C.3       11 UNK         0.0225 
     49 N         -76.9085   23.3548  -74.5704 N.am      5 UNK        -0.4615 
     50 C         -76.2464   22.3800  -75.2051 C.2       4 UNK         0.5053 
     51 O         -75.0304   22.2145  -75.1197 O.2       4 UNK        -0.5105 
     52 CA        -77.0766   21.4286  -76.0864 C.3       4 UNK         0.0263 
     53 CB        -77.4147   20.1434  -75.3141 C.3       4 UNK        -0.1981 
     54 N         -78.3172   22.0349  -76.5793 N.am      4 UNK        -0.4224 
     55 C         -78.3713   22.9837  -77.5246 C.2       3 UNK         0.4895 
     56 O         -77.3843   23.4134  -78.1216 O.2       3 UNK        -0.5091 
     57 CA        -79.7577   23.5845  -77.8224 C.3       3 UNK         0.0250 
     58 CB        -80.5032   22.7298  -78.8600 C.3       3 UNK        -0.1996 
     59 N         -80.6081   23.7739  -76.6373 N.am      3 UNK        -0.4254 
     60 C         -80.2780   24.5214  -75.5752 C.2       2 UNK         0.5004 
     61 O         -79.1759   25.0553  -75.4328 O.2       2 UNK        -0.5226 
     62 CA        -81.3219   24.6780  -74.4662 C.3       2 UNK         0.0269 
     63 CB        -81.2824   23.4867  -73.4929 C.3       2 UNK        -0.1926 
     64 N         -81.0170   25.9172  -73.7563 N.am      2 UNK        -0.4687 
     65 C         -81.9007   26.6942  -73.1253 C.2       1 UNK         0.5165 
     66 O         -83.0872   26.3943  -72.9720 O.2       1 UNK        -0.5079 
     67 H67       -83.0334   31.0089  -74.7750 H         1 UNK         0.0900 
     68 H68       -82.7478   30.1859  -76.3104 H         1 UNK         0.0900 
     69 H69       -81.5524   31.3235  -75.6817 H         1 UNK         0.0900 
     70 H70       -82.6994   29.6514  -73.0203 H         1 UNK         0.2959 
     71 H71       -80.3023   28.0722  -72.7385 H         1 UNK         0.1079 
     72 H72       -82.7438   28.0774  -70.8964 H         1 UNK         0.0837 
     73 H73       -81.1392   27.5155  -70.5103 H         1 UNK         0.0837 
     74 H74       -79.3201   30.6673  -69.3274 H         1 UNK         0.0685 
     75 H75       -79.6714   28.9907  -68.9832 H         1 UNK         0.0685 
     76 H76       -77.7441   27.7594  -69.6064 H         1 UNK         0.1434 
     77 H77       -75.9410   28.2542  -73.4557 H         1 UNK         0.1329 
     78 H78       -79.1333   30.8450  -72.2452 H         1 UNK         0.1335 
     79 H79       -77.3003   29.6431  -75.1438 H         1 UNK         0.0680 
     80 H80       -78.4181   30.8303  -74.5434 H         1 UNK         0.0680 
     81 H81       -74.4631   30.9675  -75.8659 H         1 UNK         0.1032 
     82 H82       -74.9112   29.6181  -74.8805 H         1 UNK         0.1032 
     83 H83       -73.2890   32.0028  -73.8676 H         1 UNK         0.0461 
     84 H84       -72.7329   28.5877  -72.9215 H         1 UNK         0.3453 
     85 H85       -73.2494   28.8207  -71.2690 H         1 UNK         0.3453 
     86 H86       -72.4126   29.7610  -75.4175 H         1 UNK         0.2984 
     87 H87       -70.0461   30.1823  -76.1793 H         1 UNK         0.0554 
     88 H88       -67.7548   29.6626  -75.3915 H         1 UNK         0.0847 
     89 H89       -68.2716   29.8058  -73.7108 H         1 UNK         0.0847 
     90 H90       -68.2807   31.2134  -74.7637 H         1 UNK         0.0847 
     91 H91       -69.4460   27.8390  -74.6125 H         1 UNK         0.3141 
     92 H92       -70.1855   25.7766  -75.9504 H         1 UNK         0.0743 
     93 H93       -72.1343   26.2724  -73.6268 H         1 UNK         0.0784 
     94 H94       -71.3842   24.7168  -73.9690 H         1 UNK         0.0784 
     95 H95       -70.3911   26.0878  -73.5170 H         1 UNK         0.0784 
     96 H96       -73.1441   25.6158  -75.8571 H         1 UNK         0.3213 
     97 H97       -73.5053   25.1779  -79.3071 H         1 UNK         0.0855 
     98 H98       -73.5714   22.8013  -77.3665 H         1 UNK         0.0814 
     99 H99       -72.7450   22.8445  -78.9168 H         1 UNK         0.0814 
    100 H100      -74.4994   22.9244  -78.8614 H         1 UNK         0.0814 
    101 H101      -75.2263   24.6383  -77.0487 H         1 UNK         0.3105 
    102 H102      -75.9175   27.8535  -76.1083 H         1 UNK         0.0547 
    103 H103      -77.3475   28.0816  -78.1401 H         1 UNK         0.0837 
    104 H104      -77.8935   26.4193  -77.9588 H         1 UNK         0.0837 
    105 H105      -78.3143   27.6273  -76.7454 H         1 UNK         0.0837 
    106 H106      -77.4950   25.5595  -75.6563 H         1 UNK         0.3020 
    107 H107      -75.4360   23.9433  -73.2332 H         1 UNK         0.1245 
    108 H108      -78.1003   24.2365  -72.5402 H         1 UNK         0.0781 
    109 H109      -77.7753   25.8654  -73.0072 H         1 UNK         0.0781 
    110 H110      -74.9505   26.7435  -71.9268 H         1 UNK         0.0836 
    111 H111      -75.2457   27.0137  -70.2326 H         1 UNK         0.0836 
    112 H112      -77.8949   23.4722  -74.7584 H         1 UNK         0.3022 
    113 H113      -76.4608   21.1588  -76.9474 H         1 UNK         0.0747 
    114 H114      -77.9401   19.4270  -75.9460 H         1 UNK         0.0793 
    115 H115      -76.5077   19.6531  -74.9571 H         1 UNK         0.0793 
    116 H116      -78.0394   20.3464  -74.4431 H         1 UNK         0.0793 
    117 H117      -79.1796   21.7354  -76.1479 H         1 UNK         0.3047 
    118 H118      -79.5902   24.5719  -78.2577 H         1 UNK         0.0822 
    119 H119      -81.4341   23.2044  -79.1708 H         1 UNK         0.0807 
    120 H120      -80.7436   21.7391  -78.4722 H         1 UNK         0.0807 
    121 H121      -79.8988   22.5904  -79.7577 H         1 UNK         0.0807 
    122 H122      -81.5254   23.3517  -76.6700 H         1 UNK         0.2946 
    123 H123      -82.3104   24.7536  -74.9254 H         1 UNK         0.1144 
    124 H124      -82.0207   23.6005  -72.6989 H         1 UNK         0.0793 
    125 H125      -80.3043   23.3783  -73.0241 H         1 UNK         0.0793 
    126 H126      -81.5051   22.5510  -74.0071 H         1 UNK         0.0793 
    127 H127      -80.0817   26.2639  -73.9352 H         1 UNK         0.2896 
@<TRIPOS>BOND
     1    1    2 1    
     2    1   67 1    
     3    1   68 1    
     4    1   69 1    
     5    2    3 2    
     6    2    4 am   BACKBONE|DICT|INTERRES
     7    4    5 1    
     8    4   70 1    
     9    5    6 1    
    10    5   65 1    
    11    5   71 1    
    12    6    7 1    
    13    6   72 1    
    14    6   73 1    
    15    7    8 1    
    16    8    9 1    
    17    8   74 1    
    18    8   75 1    
    19    9   10 ar   
    20    9   14 ar   
    21   10   11 ar   
    22   10   76 1    
    23   11   12 ar   
    24   11   48 1    
    25   12   13 ar   
    26   12   77 1    
    27   13   14 ar   
    28   13   15 1    
    29   14   78 1    
    30   15   16 1    
    31   15   79 1    
    32   15   80 1    
    33   16   17 1    
    34   17   18 1    
    35   17   81 1    
    36   17   82 1    
    37   18   19 1    
    38   18   22 1    
    39   18   83 1    
    40   19   20 am   BACKBONE|DICT|INTERRES
    41   19   21 2    
    42   20   84 1    
    43   20   85 1    
    44   22   23 am   BACKBONE|DICT|INTERRES
    45   22   86 1    
    46   23   24 2    
    47   23   25 1    
    48   25   26 1    
    49   25   27 1    
    50   25   87 1    
    51   26   88 1    
    52   26   89 1    
    53   26   90 1    
    54   27   28 am   BACKBONE|DICT|INTERRES
    55   27   91 1    
    56   28   29 2    
    57   28   30 1    
    58   30   31 1    
    59   30   32 1    
    60   30   92 1    
    61   31   93 1    
    62   31   94 1    
    63   31   95 1    
    64   32   33 am   BACKBONE|DICT|INTERRES
    65   32   96 1    
    66   33   34 2    
    67   33   35 1    
    68   35   36 1    
    69   35   37 1    
    70   35   97 1    
    71   36   98 1    
    72   36   99 1    
    73   36  100 1    
    74   37   38 am   BACKBONE|DICT|INTERRES
    75   37  101 1    
    76   38   39 2    
    77   38   40 1    
    78   40   41 1    
    79   40   42 1    
    80   40  102 1    
    81   41  103 1    
    82   41  104 1    
    83   41  105 1    
    84   42   43 am   BACKBONE|DICT|INTERRES
    85   42  106 1    
    86   43   44 2    
    87   43   45 1    
    88   45   46 1    
    89   45   49 1    
    90   45  107 1    
    91   46   47 1    
    92   46  108 1    
    93   46  109 1    
    94   47   48 1    
    95   48  110 1    
    96   48  111 1    
    97   49   50 am   BACKBONE|DICT|INTERRES
    98   49  112 1    
    99   50   51 2    
   100   50   52 1    
   101   52   53 1    
   102   52   54 1    
   103   52  113 1    
   104   53  114 1    
   105   53  115 1    
   106   53  116 1    
   107   54   55 am   BACKBONE|DICT|INTERRES
   108   54  117 1    
   109   55   56 2    
   110   55   57 1    
   111   57   58 1    
   112   57   59 1    
   113   57  118 1    
   114   58  119 1    
   115   58  120 1    
   116   58  121 1    
   117   59   60 am   BACKBONE|DICT|INTERRES
   118   59  122 1    
   119   60   61 2    
   120   60   62 1    
   121   62   63 1    
   122   62   64 1    
   123   62  123 1    
   124   63  124 1    
   125   63  125 1    
   126   63  126 1    
   127   64   65 am   BACKBONE|DICT|INTERRES
   128   64  127 1    
   129   65   66 2    
@<TRIPOS>SUBSTRUCTURE
     1 UNK         1 GROUP             0       ****    0 ROOT    
