@<TRIPOS>MOLECULE
3R135
127   129    1
SMALL
USER_CHARGES


@<TRIPOS>ATOM
      1 CA        -79.4924   30.7923  -75.8199 C.3       0 UNK        -0.1998 
      2 C         -79.5756   29.5544  -74.9401 C.2       0 UNK         0.4909 
      3 O         -78.6299   28.7705  -74.9038 O.2       0 UNK        -0.5240 
      4 N         -80.6952   29.3806  -74.2270 N.am      1 UNK        -0.4739 
      5 CA        -80.9498   28.2375  -73.3439 C.3       1 UNK         0.0864 
      6 C6        -82.1045   28.5112  -72.3438 C.3       11 UNK        -0.0881 
      7 S7        -81.9453   30.0863  -71.4329 S.3       11 UNK        -0.2682 
      8 C8        -81.1093   29.5679  -69.9010 C.3       11 UNK         0.0289 
      9 C9        -79.6411   29.2445  -70.1362 C.ar      11 UNK        -0.0687 
     10 C10       -79.1773   27.9290  -70.0203 C.ar      11 UNK        -0.0823 
     11 C11       -77.8269   27.6364  -70.2342 C.ar      11 UNK        -0.0830 
     12 C12       -76.9392   28.6708  -70.5356 C.ar      11 UNK        -0.1021 
     13 C13       -77.3930   29.9815  -70.6816 C.ar      11 UNK        -0.0753 
     14 C14       -78.7448   30.2666  -70.4714 C.ar      11 UNK        -0.0933 
     15 C15       -76.4094   31.0712  -71.0745 C.3       11 UNK         0.0166 
     16 S16       -75.9511   30.9392  -72.8363 S.3       11 UNK        -0.2615 
     17 C17       -74.1732   31.3675  -72.7790 C.3       11 UNK        -0.0865 
     18 CA        -73.2128   30.1670  -73.0119 C.3       10 UNK         0.0862 
     19 C         -73.3458   29.0366  -71.9540 C.2       10 UNK         0.5551 
     20 N         -73.5967   27.7883  -72.3326 N.am      10 UNK        -0.7319 
     21 O         -73.1872   29.2931  -70.7633 O.2       10 UNK        -0.5018 
     22 N         -73.2177   29.6911  -74.4039 N.am      10 UNK        -0.4509 
     23 C         -72.4506   30.1983  -75.3755 C.2       10 UNK         0.4899 
     24 O         -71.7403   31.1966  -75.2384 O.2       10 UNK        -0.4839 
     25 CA        -72.4668   29.4427  -76.7168 C.3       9 UNK         0.0222 
     26 CB        -71.4479   29.9903  -77.7383 C.3       9 UNK        -0.1966 
     27 N         -72.3017   27.9952  -76.5444 N.am      9 UNK        -0.4218 
     28 C         -71.2790   27.3325  -75.9804 C.2       9 UNK         0.5020 
     29 O         -70.2642   27.8755  -75.5414 O.2       9 UNK        -0.5274 
     30 CA        -71.4021   25.7975  -75.8745 C.3       8 UNK         0.0270 
     31 CB        -71.6343   25.3702  -74.4158 C.3       8 UNK        -0.1976 
     32 N         -72.4668   25.2330  -76.7094 N.am      8 UNK        -0.4313 
     33 C         -72.4083   25.1186  -78.0436 C.2       8 UNK         0.5041 
     34 O         -71.4055   25.3761  -78.7105 O.2       8 UNK        -0.5577 
     35 CA        -73.7014   24.6908  -78.7585 C.3       7 UNK         0.0284 
     36 CB        -73.8407   23.1604  -78.7598 C.3       7 UNK        -0.1958 
     37 N         -74.9008   25.3060  -78.1772 N.am      7 UNK        -0.4454 
     38 C         -75.1530   26.6243  -78.1765 C.2       7 UNK         0.5089 
     39 O         -74.4295   27.4567  -78.7208 O.2       7 UNK        -0.5125 
     40 CA        -76.3851   27.1103  -77.3991 C.3       6 UNK         0.0408 
     41 CB        -77.6598   26.9710  -78.2446 C.3       6 UNK        -0.1791 
     42 N         -76.5622   26.4061  -76.1324 N.am      6 UNK        -0.4762 
     43 C         -75.7519   26.4914  -75.0676 C.2       6 UNK         0.5007 
     44 O         -74.7481   27.2058  -75.0056 O.2       6 UNK        -0.5032 
     45 CA        -76.1144   25.5834  -73.8775 C.3       5 UNK         0.0783 
     46 C46       -77.2383   26.2430  -73.0461 C.3       11 UNK        -0.0857 
     47 S47       -77.8288   25.2363  -71.6388 S.3       11 UNK        -0.2512 
     48 C48       -77.3173   26.2034  -70.1800 C.3       11 UNK         0.0225 
     49 N         -76.4589   24.2327  -74.3302 N.am      5 UNK        -0.4615 
     50 C         -75.6145   23.3855  -74.9331 C.2       4 UNK         0.5053 
     51 O         -74.4313   23.6413  -75.1575 O.2       4 UNK        -0.5105 
     52 CA        -76.2004   22.0398  -75.3935 C.3       4 UNK         0.0263 
     53 CB        -76.2206   21.0349  -74.2310 C.3       4 UNK        -0.1981 
     54 N         -77.5490   22.1720  -75.9526 N.am      4 UNK        -0.4224 
     55 C         -77.8330   22.8119  -77.0966 C.2       3 UNK         0.4895 
     56 O         -76.9822   23.3143  -77.8296 O.2       3 UNK        -0.5091 
     57 CA        -79.3223   22.9664  -77.4561 C.3       3 UNK         0.0250 
     58 CB        -79.8453   21.7019  -78.1557 C.3       3 UNK        -0.1996 
     59 N         -80.1795   23.2891  -76.3072 N.am      3 UNK        -0.4254 
     60 C         -80.0118   24.3567  -75.5136 C.2       2 UNK         0.5004 
     61 O         -79.0967   25.1675  -75.6620 O.2       2 UNK        -0.5226 
     62 CA        -80.9943   24.5080  -74.3371 C.3       2 UNK         0.0269 
     63 CB        -80.7844   23.3869  -73.3038 C.3       2 UNK        -0.1926 
     64 N         -80.8463   25.8021  -73.6617 N.am      2 UNK        -0.4687 
     65 C         -81.2598   26.9709  -74.1698 C.2       1 UNK         0.5165 
     66 O         -81.9106   27.0663  -75.2149 O.2       1 UNK        -0.5079 
     67 H67       -79.3556   30.5023  -76.8614 H         1 UNK         0.0900 
     68 H68       -80.3921   31.4037  -75.7511 H         1 UNK         0.0900 
     69 H69       -78.6414   31.4042  -75.5212 H         1 UNK         0.0900 
     70 H70       -81.4472   30.0502  -74.2985 H         1 UNK         0.2959 
     71 H71       -80.0353   28.0565  -72.7746 H         1 UNK         0.1079 
     72 H72       -82.1898   27.6920  -71.6273 H         1 UNK         0.0837 
     73 H73       -83.0605   28.5454  -72.8709 H         1 UNK         0.0837 
     74 H74       -81.1796   30.3778  -69.1736 H         1 UNK         0.0685 
     75 H75       -81.6372   28.7192  -69.4631 H         1 UNK         0.0685 
     76 H76       -79.8657   27.1300  -69.7809 H         1 UNK         0.1434 
     77 H77       -75.8948   28.4501  -70.7025 H         1 UNK         0.1329 
     78 H78       -79.1052   31.2805  -70.5788 H         1 UNK         0.1335 
     79 H79       -76.8259   32.0617  -70.8856 H         1 UNK         0.0680 
     80 H80       -75.5264   30.9814  -70.4402 H         1 UNK         0.0680 
     81 H81       -73.9891   32.1325  -73.5345 H         1 UNK         0.1032 
     82 H82       -73.9377   31.8513  -71.8298 H         1 UNK         0.1032 
     83 H83       -72.2070   30.5472  -72.8218 H         1 UNK         0.0461 
     84 H84       -73.7707   27.5610  -73.3017 H         1 UNK         0.3453 
     85 H85       -73.6367   27.0716  -71.6268 H         1 UNK         0.3453 
     86 H86       -73.7938   28.8795  -74.6040 H         1 UNK         0.2984 
     87 H87       -73.4636   29.5879  -77.1355 H         1 UNK         0.0554 
     88 H88       -71.5110   29.4532  -78.6847 H         1 UNK         0.0847 
     89 H89       -70.4235   29.9088  -77.3735 H         1 UNK         0.0847 
     90 H90       -71.6350   31.0435  -77.9507 H         1 UNK         0.0847 
     91 H91       -73.0893   27.4420  -76.8559 H         1 UNK         0.3141 
     92 H92       -70.4497   25.3758  -76.2027 H         1 UNK         0.0743 
     93 H93       -72.5995   25.7133  -74.0448 H         1 UNK         0.0784 
     94 H94       -71.6073   24.2852  -74.3134 H         1 UNK         0.0784 
     95 H95       -70.8659   25.7777  -73.7573 H         1 UNK         0.0784 
     96 H96       -73.3048   24.9160  -76.2289 H         1 UNK         0.3213 
     97 H97       -73.6296   25.0252  -79.7957 H         1 UNK         0.0855 
     98 H98       -73.9478   22.7630  -77.7505 H         1 UNK         0.0814 
     99 H99       -72.9634   22.6891  -79.2049 H         1 UNK         0.0814 
    100 H100      -74.7074   22.8417  -79.3391 H         1 UNK         0.0814 
    101 H101      -75.5902   24.6759  -77.7750 H         1 UNK         0.3105 
    102 H102      -76.2430   28.1687  -77.1702 H         1 UNK         0.0547 
    103 H103      -77.5687   27.5189  -79.1832 H         1 UNK         0.0837 
    104 H104      -77.8698   25.9295  -78.4904 H         1 UNK         0.0837 
    105 H105      -78.5265   27.3696  -77.7162 H         1 UNK         0.0837 
    106 H106      -77.4063   25.8426  -76.0405 H         1 UNK         0.3020 
    107 H107      -75.2277   25.4970  -73.2466 H         1 UNK         0.1245 
    108 H108      -78.1040   26.4522  -73.6730 H         1 UNK         0.0781 
    109 H109      -76.8992   27.2187  -72.7038 H         1 UNK         0.0781 
    110 H110      -76.2290   26.1811  -70.1042 H         1 UNK         0.0836 
    111 H111      -77.6954   25.7165  -69.2801 H         1 UNK         0.0836 
    112 H112      -77.4262   23.9678  -74.2235 H         1 UNK         0.3022 
    113 H113      -75.5487   21.6439  -76.1751 H         1 UNK         0.0747 
    114 H114      -76.5603   20.0530  -74.5612 H         1 UNK         0.0793 
    115 H115      -75.2218   20.9060  -73.8114 H         1 UNK         0.0793 
    116 H116      -76.8741   21.3627  -73.4214 H         1 UNK         0.0793 
    117 H117      -78.3114   21.7873  -75.4145 H         1 UNK         0.3047 
    118 H118      -79.3983   23.7987  -78.1591 H         1 UNK         0.0822 
    119 H119      -79.8367   20.8367  -77.4916 H         1 UNK         0.0807 
    120 H120      -79.2306   21.4536  -79.0223 H         1 UNK         0.0807 
    121 H121      -80.8653   21.8399  -78.5150 H         1 UNK         0.0807 
    122 H122      -80.9484   22.6599  -76.1253 H         1 UNK         0.2946 
    123 H123      -82.0097   24.4386  -74.7344 H         1 UNK         0.1144 
    124 H124      -81.4502   23.5058  -72.4488 H         1 UNK         0.0793 
    125 H125      -79.7609   23.3655  -72.9291 H         1 UNK         0.0793 
    126 H126      -80.9923   22.4063  -73.7335 H         1 UNK         0.0793 
    127 H127      -80.2955   25.8014  -72.8151 H         1 UNK         0.2896 
@<TRIPOS>BOND
     1    1    2 1    
     2    1   67 1    
     3    1   68 1    
     4    1   69 1    
     5    2    3 2    
     6    2    4 am   BACKBONE|DICT|INTERRES
     7    4    5 1    
     8    4   70 1    
     9    5    6 1    
    10    5   65 1    
    11    5   71 1    
    12    6    7 1    
    13    6   72 1    
    14    6   73 1    
    15    7    8 1    
    16    8    9 1    
    17    8   74 1    
    18    8   75 1    
    19    9   10 ar   
    20    9   14 ar   
    21   10   11 ar   
    22   10   76 1    
    23   11   12 ar   
    24   11   48 1    
    25   12   13 ar   
    26   12   77 1    
    27   13   14 ar   
    28   13   15 1    
    29   14   78 1    
    30   15   16 1    
    31   15   79 1    
    32   15   80 1    
    33   16   17 1    
    34   17   18 1    
    35   17   81 1    
    36   17   82 1    
    37   18   19 1    
    38   18   22 1    
    39   18   83 1    
    40   19   20 am   BACKBONE|DICT|INTERRES
    41   19   21 2    
    42   20   84 1    
    43   20   85 1    
    44   22   23 am   BACKBONE|DICT|INTERRES
    45   22   86 1    
    46   23   24 2    
    47   23   25 1    
    48   25   26 1    
    49   25   27 1    
    50   25   87 1    
    51   26   88 1    
    52   26   89 1    
    53   26   90 1    
    54   27   28 am   BACKBONE|DICT|INTERRES
    55   27   91 1    
    56   28   29 2    
    57   28   30 1    
    58   30   31 1    
    59   30   32 1    
    60   30   92 1    
    61   31   93 1    
    62   31   94 1    
    63   31   95 1    
    64   32   33 am   BACKBONE|DICT|INTERRES
    65   32   96 1    
    66   33   34 2    
    67   33   35 1    
    68   35   36 1    
    69   35   37 1    
    70   35   97 1    
    71   36   98 1    
    72   36   99 1    
    73   36  100 1    
    74   37   38 am   BACKBONE|DICT|INTERRES
    75   37  101 1    
    76   38   39 2    
    77   38   40 1    
    78   40   41 1    
    79   40   42 1    
    80   40  102 1    
    81   41  103 1    
    82   41  104 1    
    83   41  105 1    
    84   42   43 am   BACKBONE|DICT|INTERRES
    85   42  106 1    
    86   43   44 2    
    87   43   45 1    
    88   45   46 1    
    89   45   49 1    
    90   45  107 1    
    91   46   47 1    
    92   46  108 1    
    93   46  109 1    
    94   47   48 1    
    95   48  110 1    
    96   48  111 1    
    97   49   50 am   BACKBONE|DICT|INTERRES
    98   49  112 1    
    99   50   51 2    
   100   50   52 1    
   101   52   53 1    
   102   52   54 1    
   103   52  113 1    
   104   53  114 1    
   105   53  115 1    
   106   53  116 1    
   107   54   55 am   BACKBONE|DICT|INTERRES
   108   54  117 1    
   109   55   56 2    
   110   55   57 1    
   111   57   58 1    
   112   57   59 1    
   113   57  118 1    
   114   58  119 1    
   115   58  120 1    
   116   58  121 1    
   117   59   60 am   BACKBONE|DICT|INTERRES
   118   59  122 1    
   119   60   61 2    
   120   60   62 1    
   121   62   63 1    
   122   62   64 1    
   123   62  123 1    
   124   63  124 1    
   125   63  125 1    
   126   63  126 1    
   127   64   65 am   BACKBONE|DICT|INTERRES
   128   64  127 1    
   129   65   66 2    
@<TRIPOS>SUBSTRUCTURE
     1 UNK         1 GROUP             0       ****    0 ROOT    
