@<TRIPOS>MOLECULE
3R135
127   129    1
SMALL
USER_CHARGES


@<TRIPOS>ATOM
      1 CA        -82.9722   26.3144  -70.0467 C.3       0 UNK        -0.1998 
      2 C         -83.2158   26.8245  -71.4591 C.2       0 UNK         0.4909 
      3 O         -84.3415   26.7518  -71.9525 O.2       0 UNK        -0.5240 
      4 N         -82.1665   27.3388  -72.1136 N.am      1 UNK        -0.4739 
      5 CA        -82.2119   27.8795  -73.4810 C.3       1 UNK         0.0864 
      6 C6        -80.9855   28.7735  -73.7961 C.3       11 UNK        -0.0881 
      7 S7        -80.8045   30.1571  -72.6217 S.3       11 UNK        -0.2682 
      8 C8        -79.0480   30.5995  -72.8641 C.3       11 UNK         0.0289 
      9 C9        -78.0119   29.6013  -72.3364 C.ar      11 UNK        -0.0687 
     10 C10       -78.3431   28.4997  -71.5379 C.ar      11 UNK        -0.0823 
     11 C11       -77.3572   27.6208  -71.0832 C.ar      11 UNK        -0.0830 
     12 C12       -76.0194   27.8670  -71.4077 C.ar      11 UNK        -0.1021 
     13 C13       -75.6594   28.9642  -72.1966 C.ar      11 UNK        -0.0753 
     14 C14       -76.6692   29.8207  -72.6562 C.ar      11 UNK        -0.0933 
     15 C15       -74.1785   29.1619  -72.5411 C.3       11 UNK         0.0166 
     16 S16       -73.6927   30.8634  -73.0069 S.3       11 UNK        -0.2615 
     17 C17       -74.1947   30.9122  -74.7630 C.3       11 UNK        -0.0865 
     18 CA        -73.0652   31.1733  -75.8025 C.3       10 UNK         0.0862 
     19 C         -72.6358   32.6687  -75.9396 C.2       10 UNK         0.5551 
     20 N         -71.4941   32.9647  -76.5491 N.am      10 UNK        -0.7319 
     21 O         -73.3594   33.5763  -75.5358 O.2       10 UNK        -0.5018 
     22 N         -71.9888   30.1602  -75.7942 N.am      10 UNK        -0.4509 
     23 C         -70.8583   30.1645  -75.0703 C.2       10 UNK         0.4899 
     24 O         -70.5660   31.0205  -74.2339 O.2       10 UNK        -0.4839 
     25 CA        -69.8647   29.0266  -75.3778 C.3       9 UNK         0.0222 
     26 CB        -68.5694   29.1097  -74.5408 C.3       9 UNK        -0.1966 
     27 N         -70.4654   27.6932  -75.2726 N.am      9 UNK        -0.4218 
     28 C         -71.0041   27.1164  -74.1896 C.2       9 UNK         0.5020 
     29 O         -71.0963   27.6595  -73.0876 O.2       9 UNK        -0.5274 
     30 CA        -71.5095   25.6735  -74.3852 C.3       8 UNK         0.0270 
     31 CB        -71.9915   25.0275  -73.0720 C.3       8 UNK        -0.1976 
     32 N         -72.5759   25.6014  -75.3897 N.am      8 UNK        -0.4313 
     33 C         -72.3787   25.6201  -76.7174 C.2       8 UNK         0.5041 
     34 O         -71.2596   25.7238  -77.2241 O.2       8 UNK        -0.5577 
     35 CA        -73.6025   25.5216  -77.6493 C.3       7 UNK         0.0284 
     36 CB        -73.7465   24.0871  -78.1828 C.3       7 UNK        -0.1958 
     37 N         -74.8636   25.9335  -77.0320 N.am      7 UNK        -0.4454 
     38 C         -75.1477   27.1745  -76.6154 C.2       7 UNK         0.5089 
     39 O         -74.4084   28.1400  -76.8063 O.2       7 UNK        -0.5125 
     40 CA        -76.4524   27.3629  -75.8146 C.3       6 UNK         0.0408 
     41 CB        -77.5919   27.8296  -76.7311 C.3       6 UNK        -0.1791 
     42 N         -76.8817   26.1699  -75.0741 N.am      6 UNK        -0.4762 
     43 C         -76.1558   25.5472  -74.1320 C.2       6 UNK         0.5007 
     44 O         -75.0180   25.8880  -73.8159 O.2       6 UNK        -0.5032 
     45 CA        -76.7680   24.2878  -73.4984 C.3       5 UNK         0.0783 
     46 C46       -77.8368   24.6197  -72.4242 C.3       11 UNK        -0.0857 
     47 S47       -77.0685   24.8401  -70.7827 S.3       11 UNK        -0.2512 
     48 C48       -77.7493   26.4324  -70.2110 C.3       11 UNK         0.0225 
     49 N         -77.2778   23.4039  -74.5477 N.am      5 UNK        -0.4615 
     50 C         -76.5145   22.5394  -75.2323 C.2       4 UNK         0.5053 
     51 O         -75.3241   22.3401  -74.9917 O.2       4 UNK        -0.5105 
     52 CA        -77.1772   21.7667  -76.3873 C.3       4 UNK         0.0263 
     53 CB        -77.6855   20.4018  -75.8962 C.3       4 UNK        -0.1981 
     54 N         -78.2796   22.4926  -77.0206 N.am      4 UNK        -0.4224 
     55 C         -78.1441   23.6294  -77.7181 C.2       3 UNK         0.4895 
     56 O         -77.0644   24.1750  -77.9397 O.2       3 UNK        -0.5091 
     57 CA        -79.4423   24.3000  -78.1984 C.3       3 UNK         0.0250 
     58 CB        -79.8706   23.7319  -79.5607 C.3       3 UNK        -0.1996 
     59 N         -80.5539   24.1886  -77.2449 N.am      3 UNK        -0.4254 
     60 C         -80.5241   24.6361  -75.9821 C.2       2 UNK         0.5004 
     61 O         -79.5302   25.1446  -75.4548 O.2       2 UNK        -0.5226 
     62 CA        -81.7935   24.4304  -75.1436 C.3       2 UNK         0.0269 
     63 CB        -81.7011   23.1145  -74.3541 C.3       2 UNK        -0.1926 
     64 N         -81.9587   25.5383  -74.2046 N.am      2 UNK        -0.4687 
     65 C         -82.3332   26.7772  -74.5540 C.2       1 UNK         0.5165 
     66 O         -82.7379   27.0720  -75.6800 O.2       1 UNK        -0.5079 
     67 H67       -83.2171   25.2544  -69.9833 H         1 UNK         0.0900 
     68 H68       -83.6033   26.8527  -69.3401 H         1 UNK         0.0900 
     69 H69       -81.9345   26.4417  -69.7391 H         1 UNK         0.0900 
     70 H70       -81.2731   27.3980  -71.6503 H         1 UNK         0.2959 
     71 H71       -83.1091   28.4971  -73.5661 H         1 UNK         0.1079 
     72 H72       -80.0707   28.1770  -73.7997 H         1 UNK         0.0837 
     73 H73       -81.0703   29.2007  -74.7976 H         1 UNK         0.0837 
     74 H74       -78.8799   30.7631  -73.9298 H         1 UNK         0.0685 
     75 H75       -78.8744   31.5589  -72.3749 H         1 UNK         0.0685 
     76 H76       -79.3690   28.3219  -71.2561 H         1 UNK         0.1434 
     77 H77       -75.2532   27.1896  -71.0556 H         1 UNK         0.1329 
     78 H78       -76.4237   30.6763  -73.2654 H         1 UNK         0.1335 
     79 H79       -73.5730   28.8785  -71.6789 H         1 UNK         0.0680 
     80 H80       -73.9021   28.4721  -73.3404 H         1 UNK         0.0680 
     81 H81       -74.6791   29.9689  -75.0089 H         1 UNK         0.1032 
     82 H82       -74.9833   31.6588  -74.8696 H         1 UNK         0.1032 
     83 H83       -73.5456   30.9975  -76.7659 H         1 UNK         0.0461 
     84 H84       -71.2237   33.9303  -76.6494 H         1 UNK         0.3453 
     85 H85       -70.8930   32.2329  -76.8915 H         1 UNK         0.3453 
     86 H86       -72.1347   29.3933  -76.4356 H         1 UNK         0.2984 
     87 H87       -69.5800   29.1470  -76.4241 H         1 UNK         0.0554 
     88 H88       -67.8687   28.3205  -74.8129 H         1 UNK         0.0847 
     89 H89       -68.7701   29.0263  -73.4721 H         1 UNK         0.0847 
     90 H90       -68.0617   30.0617  -74.7011 H         1 UNK         0.0847 
     91 H91       -70.4918   27.1429  -76.1286 H         1 UNK         0.3141 
     92 H92       -70.6623   25.0821  -74.7393 H         1 UNK         0.0743 
     93 H93       -72.7767   25.6132  -72.5933 H         1 UNK         0.0784 
     94 H94       -72.3772   24.0216  -73.2391 H         1 UNK         0.0784 
     95 H95       -71.1715   24.9473  -72.3574 H         1 UNK         0.0784 
     96 H96       -73.5260   25.5998  -75.0262 H         1 UNK         0.3213 
     97 H97       -73.4162   26.1848  -78.4966 H         1 UNK         0.0855 
     98 H98       -73.9919   23.3838  -77.3859 H         1 UNK         0.0814 
     99 H99       -72.8202   23.7457  -78.6473 H         1 UNK         0.0814 
    100 H100      -74.5280   24.0223  -78.9400 H         1 UNK         0.0814 
    101 H101      -75.5769   25.2198  -76.9277 H         1 UNK         0.3105 
    102 H102      -76.2702   28.1451  -75.0764 H         1 UNK         0.0547 
    103 H103      -77.3266   28.7565  -77.2412 H         1 UNK         0.0837 
    104 H104      -77.8168   27.0880  -77.4973 H         1 UNK         0.0837 
    105 H105      -78.5052   28.0187  -76.1664 H         1 UNK         0.0837 
    106 H106      -77.8149   25.8160  -75.2776 H         1 UNK         0.3020 
    107 H107      -75.9492   23.7599  -73.0023 H         1 UNK         0.1245 
    108 H108      -78.5421   23.7928  -72.3278 H         1 UNK         0.0781 
    109 H109      -78.4381   25.4892  -72.6980 H         1 UNK         0.0781 
    110 H110      -77.3948   26.6170  -69.1961 H         1 UNK         0.0836 
    111 H111      -78.8340   26.3379  -70.1417 H         1 UNK         0.0836 
    112 H112      -78.2262   23.5768  -74.8549 H         1 UNK         0.3022 
    113 H113      -76.4110   21.5948  -77.1467 H         1 UNK         0.0747 
    114 H114      -78.0821   19.8059  -76.7185 H         1 UNK         0.0793 
    115 H115      -76.8779   19.8256  -75.4419 H         1 UNK         0.0793 
    116 H116      -78.4711   20.5080  -75.1469 H         1 UNK         0.0793 
    117 H117      -79.2082   22.1186  -76.8914 H         1 UNK         0.3047 
    118 H118      -79.2308   25.3629  -78.3269 H         1 UNK         0.0822 
    119 H119      -80.7291   24.2698  -79.9633 H         1 UNK         0.0807 
    120 H120      -80.1353   22.6758  -79.4952 H         1 UNK         0.0807 
    121 H121      -79.0646   23.8211  -80.2908 H         1 UNK         0.0807 
    122 H122      -81.4047   23.7703  -77.5941 H         1 UNK         0.2946 
    123 H123      -82.6629   24.3943  -75.8044 H         1 UNK         0.1144 
    124 H124      -81.6059   22.2598  -75.0251 H         1 UNK         0.0793 
    125 H125      -82.5945   22.9517  -73.7508 H         1 UNK         0.0793 
    126 H126      -80.8391   23.1021  -73.6854 H         1 UNK         0.0793 
    127 H127      -81.6195   25.3948  -73.2655 H         1 UNK         0.2896 
@<TRIPOS>BOND
     1    1    2 1    
     2    1   67 1    
     3    1   68 1    
     4    1   69 1    
     5    2    3 2    
     6    2    4 am   BACKBONE|DICT|INTERRES
     7    4    5 1    
     8    4   70 1    
     9    5    6 1    
    10    5   65 1    
    11    5   71 1    
    12    6    7 1    
    13    6   72 1    
    14    6   73 1    
    15    7    8 1    
    16    8    9 1    
    17    8   74 1    
    18    8   75 1    
    19    9   10 ar   
    20    9   14 ar   
    21   10   11 ar   
    22   10   76 1    
    23   11   12 ar   
    24   11   48 1    
    25   12   13 ar   
    26   12   77 1    
    27   13   14 ar   
    28   13   15 1    
    29   14   78 1    
    30   15   16 1    
    31   15   79 1    
    32   15   80 1    
    33   16   17 1    
    34   17   18 1    
    35   17   81 1    
    36   17   82 1    
    37   18   19 1    
    38   18   22 1    
    39   18   83 1    
    40   19   20 am   BACKBONE|DICT|INTERRES
    41   19   21 2    
    42   20   84 1    
    43   20   85 1    
    44   22   23 am   BACKBONE|DICT|INTERRES
    45   22   86 1    
    46   23   24 2    
    47   23   25 1    
    48   25   26 1    
    49   25   27 1    
    50   25   87 1    
    51   26   88 1    
    52   26   89 1    
    53   26   90 1    
    54   27   28 am   BACKBONE|DICT|INTERRES
    55   27   91 1    
    56   28   29 2    
    57   28   30 1    
    58   30   31 1    
    59   30   32 1    
    60   30   92 1    
    61   31   93 1    
    62   31   94 1    
    63   31   95 1    
    64   32   33 am   BACKBONE|DICT|INTERRES
    65   32   96 1    
    66   33   34 2    
    67   33   35 1    
    68   35   36 1    
    69   35   37 1    
    70   35   97 1    
    71   36   98 1    
    72   36   99 1    
    73   36  100 1    
    74   37   38 am   BACKBONE|DICT|INTERRES
    75   37  101 1    
    76   38   39 2    
    77   38   40 1    
    78   40   41 1    
    79   40   42 1    
    80   40  102 1    
    81   41  103 1    
    82   41  104 1    
    83   41  105 1    
    84   42   43 am   BACKBONE|DICT|INTERRES
    85   42  106 1    
    86   43   44 2    
    87   43   45 1    
    88   45   46 1    
    89   45   49 1    
    90   45  107 1    
    91   46   47 1    
    92   46  108 1    
    93   46  109 1    
    94   47   48 1    
    95   48  110 1    
    96   48  111 1    
    97   49   50 am   BACKBONE|DICT|INTERRES
    98   49  112 1    
    99   50   51 2    
   100   50   52 1    
   101   52   53 1    
   102   52   54 1    
   103   52  113 1    
   104   53  114 1    
   105   53  115 1    
   106   53  116 1    
   107   54   55 am   BACKBONE|DICT|INTERRES
   108   54  117 1    
   109   55   56 2    
   110   55   57 1    
   111   57   58 1    
   112   57   59 1    
   113   57  118 1    
   114   58  119 1    
   115   58  120 1    
   116   58  121 1    
   117   59   60 am   BACKBONE|DICT|INTERRES
   118   59  122 1    
   119   60   61 2    
   120   60   62 1    
   121   62   63 1    
   122   62   64 1    
   123   62  123 1    
   124   63  124 1    
   125   63  125 1    
   126   63  126 1    
   127   64   65 am   BACKBONE|DICT|INTERRES
   128   64  127 1    
   129   65   66 2    
@<TRIPOS>SUBSTRUCTURE
     1 UNK         1 GROUP             0       ****    0 ROOT    
