@<TRIPOS>MOLECULE
3R135
127   129    1
SMALL
USER_CHARGES


@<TRIPOS>ATOM
      1 CA        -84.5091   26.9289  -75.4602 C.3       0 UNK        -0.1998 
      2 C         -83.1433   27.5369  -75.7408 C.2       0 UNK         0.4909 
      3 O         -83.0424   28.4836  -76.5211 O.2       0 UNK        -0.5240 
      4 N         -82.0889   26.9935  -75.1187 N.am      1 UNK        -0.4739 
      5 CA        -80.7017   27.4704  -75.2392 C.3       1 UNK         0.0864 
      6 C6        -79.8700   27.1851  -73.9597 C.3       11 UNK        -0.0881 
      7 S7        -80.6592   27.8663  -72.4622 S.3       11 UNK        -0.2682 
      8 C8        -79.8221   29.4816  -72.2885 C.3       11 UNK         0.0289 
      9 C9        -78.4306   29.4221  -71.6573 C.ar      11 UNK        -0.0687 
     10 C10       -78.1012   28.4585  -70.6970 C.ar      11 UNK        -0.0823 
     11 C11       -76.8377   28.4462  -70.1023 C.ar      11 UNK        -0.0830 
     12 C12       -75.9088   29.4312  -70.4407 C.ar      11 UNK        -0.1021 
     13 C13       -76.2166   30.4075  -71.3956 C.ar      11 UNK        -0.0753 
     14 C14       -77.4793   30.3903  -72.0000 C.ar      11 UNK        -0.0933 
     15 C15       -75.2243   31.5125  -71.7636 C.3       11 UNK         0.0166 
     16 S16       -73.4640   31.0356  -71.6459 S.3       11 UNK        -0.2615 
     17 C17       -73.3936   29.7488  -72.9307 C.3       11 UNK        -0.0865 
     18 CA        -71.9790   29.1663  -73.1588 C.3       10 UNK         0.0862 
     19 C         -71.5478   28.2019  -72.0200 C.2       10 UNK         0.5551 
     20 N         -71.9408   26.9341  -72.0558 N.am      10 UNK        -0.7319 
     21 O         -70.8296   28.6016  -71.1068 O.2       10 UNK        -0.5018 
     22 N         -71.9099   28.5479  -74.4847 N.am      10 UNK        -0.4509 
     23 C         -70.7926   28.3094  -75.1791 C.2       10 UNK         0.4899 
     24 O         -69.6632   28.6212  -74.8010 O.2       10 UNK        -0.4839 
     25 CA        -70.9720   27.6230  -76.5417 C.3       9 UNK         0.0222 
     26 CB        -71.0283   26.0967  -76.3634 C.3       9 UNK        -0.1966 
     27 N         -72.1942   28.0804  -77.2107 N.am      9 UNK        -0.4218 
     28 C         -72.2494   29.0710  -78.1129 C.2       9 UNK         0.5020 
     29 O         -71.2591   29.6792  -78.5219 O.2       9 UNK        -0.5274 
     30 CA        -73.6350   29.4472  -78.6751 C.3       8 UNK         0.0270 
     31 CB        -73.9014   28.6932  -79.9885 C.3       8 UNK        -0.1976 
     32 N         -74.7346   29.1889  -77.7426 N.am      8 UNK        -0.4313 
     33 C         -74.9964   29.9180  -76.6489 C.2       8 UNK         0.5041 
     34 O         -74.3932   30.9504  -76.3567 O.2       8 UNK        -0.5577 
     35 CA        -76.1000   29.3991  -75.7045 C.3       7 UNK         0.0284 
     36 CB        -77.4250   30.1311  -75.9693 C.3       7 UNK        -0.1958 
     37 N         -76.3274   27.9490  -75.7587 N.am      7 UNK        -0.4454 
     38 C         -75.4102   27.0045  -75.5193 C.2       7 UNK         0.5089 
     39 O         -74.2229   27.2561  -75.3147 O.2       7 UNK        -0.5125 
     40 CA        -75.8931   25.5444  -75.5575 C.3       6 UNK         0.0408 
     41 CB        -74.8844   24.6287  -76.2779 C.3       6 UNK        -0.1791 
     42 N         -76.2102   25.0142  -74.2268 N.am      6 UNK        -0.4762 
     43 C         -75.4093   24.9258  -73.1480 C.2       6 UNK         0.5007 
     44 O         -74.2407   25.3116  -73.1123 O.2       6 UNK        -0.5032 
     45 CA        -76.0066   24.2319  -71.9015 C.3       5 UNK         0.0783 
     46 C46       -76.6635   25.2445  -70.9325 C.3       11 UNK        -0.0857 
     47 S47       -75.4478   26.0680  -69.8519 S.3       11 UNK        -0.2512 
     48 C48       -76.4707   27.3692  -69.0932 C.3       11 UNK         0.0225 
     49 N         -76.9499   23.1727  -72.2694 N.am      5 UNK        -0.4615 
     50 C         -76.6105   22.0180  -72.8544 C.2       4 UNK         0.5053 
     51 O         -75.4489   21.6653  -73.0591 O.2       4 UNK        -0.5105 
     52 CA        -77.7611   21.1126  -73.3224 C.3       4 UNK         0.0263 
     53 CB        -79.0181   21.1877  -72.4253 C.3       4 UNK        -0.1981 
     54 N         -78.0924   21.3611  -74.7303 N.am      4 UNK        -0.4224 
     55 C         -78.5526   22.4981  -75.2738 C.2       3 UNK         0.4895 
     56 O         -78.7862   23.5299  -74.6345 O.2       3 UNK        -0.5091 
     57 CA        -78.7842   22.4775  -76.7919 C.3       3 UNK         0.0250 
     58 CB        -79.6524   21.2827  -77.2388 C.3       3 UNK        -0.1996 
     59 N         -79.4329   23.7232  -77.1876 N.am      3 UNK        -0.4254 
     60 C         -79.3507   24.3114  -78.3852 C.2       2 UNK         0.5004 
     61 O         -78.6817   23.8672  -79.3190 O.2       2 UNK        -0.5226 
     62 CA        -80.1691   25.5993  -78.5946 C.3       2 UNK         0.0269 
     63 CB        -81.3451   25.3375  -79.5509 C.3       2 UNK        -0.1926 
     64 N         -80.6963   26.1702  -77.3501 N.am      2 UNK        -0.4687 
     65 C         -79.9906   26.9279  -76.4996 C.2       1 UNK         0.5165 
     66 O         -78.8043   27.1971  -76.6795 O.2       1 UNK        -0.5079 
     67 H67       -84.9555   26.5641  -76.3848 H         1 UNK         0.0900 
     68 H68       -85.1730   27.6808  -75.0345 H         1 UNK         0.0900 
     69 H69       -84.4486   26.0956  -74.7603 H         1 UNK         0.0900 
     70 H70       -82.2302   26.2266  -74.4760 H         1 UNK         0.2959 
     71 H71       -80.7279   28.5550  -75.3672 H         1 UNK         0.1079 
     72 H72       -78.8619   27.5963  -74.0418 H         1 UNK         0.0837 
     73 H73       -79.7452   26.1098  -73.8172 H         1 UNK         0.0837 
     74 H74       -79.7785   29.9615  -73.2672 H         1 UNK         0.0685 
     75 H75       -80.4461   30.1205  -71.6626 H         1 UNK         0.0685 
     76 H76       -78.8260   27.7103  -70.4086 H         1 UNK         0.1434 
     77 H77       -74.9410   29.4255  -69.9589 H         1 UNK         0.1329 
     78 H78       -77.7315   31.1506  -72.7269 H         1 UNK         0.1335 
     79 H79       -75.4161   31.8673  -72.7777 H         1 UNK         0.0680 
     80 H80       -75.3963   32.3618  -71.1014 H         1 UNK         0.0680 
     81 H81       -73.7338   30.2254  -73.8495 H         1 UNK         0.1032 
     82 H82       -74.1130   28.9560  -72.7137 H         1 UNK         0.1032 
     83 H83       -71.2743   30.0007  -73.1623 H         1 UNK         0.0461 
     84 H84       -72.5876   26.5971  -72.7595 H         1 UNK         0.3453 
     85 H85       -71.6516   26.3139  -71.3174 H         1 UNK         0.3453 
     86 H86       -72.7847   28.1623  -74.8355 H         1 UNK         0.2984 
     87 H87       -70.1014   27.8576  -77.1579 H         1 UNK         0.0554 
     88 H88       -71.1487   25.5883  -77.3200 H         1 UNK         0.0847 
     89 H89       -71.8519   25.7944  -75.7155 H         1 UNK         0.0847 
     90 H90       -70.1080   25.7245  -75.9114 H         1 UNK         0.0847 
     91 H91       -73.0628   27.6870  -76.8653 H         1 UNK         0.3141 
     92 H92       -73.6196   30.5170  -78.8953 H         1 UNK         0.0743 
     93 H93       -73.1131   28.8892  -80.7168 H         1 UNK         0.0784 
     94 H94       -73.9418   27.6139  -79.8354 H         1 UNK         0.0784 
     95 H95       -74.8427   29.0049  -80.4418 H         1 UNK         0.0784 
     96 H96       -75.3016   28.3713  -77.9137 H         1 UNK         0.3213 
     97 H97       -75.7930   29.6321  -74.6844 H         1 UNK         0.0855 
     98 H98       -77.2954   31.2121  -75.9007 H         1 UNK         0.0814 
     99 H99       -78.1850   29.8506  -75.2406 H         1 UNK         0.0814 
    100 H100      -77.8154   29.9100  -76.9635 H         1 UNK         0.0814 
    101 H101      -77.2707   27.6523  -76.0127 H         1 UNK         0.3105 
    102 H102      -76.8212   25.5108  -76.1292 H         1 UNK         0.0547 
    103 H103      -74.6599   25.0027  -77.2774 H         1 UNK         0.0837 
    104 H104      -73.9405   24.5572  -75.7375 H         1 UNK         0.0837 
    105 H105      -75.2795   23.6191  -76.3895 H         1 UNK         0.0837 
    106 H106      -77.1462   24.6304  -74.1394 H         1 UNK         0.3020 
    107 H107      -75.1767   23.7455  -71.3828 H         1 UNK         0.1245 
    108 H108      -77.3682   24.7349  -70.2730 H         1 UNK         0.0781 
    109 H109      -77.2483   25.9827  -71.4829 H         1 UNK         0.0781 
    110 H110      -75.9170   27.8175  -68.2668 H         1 UNK         0.0836 
    111 H111      -77.3646   26.9234  -68.6542 H         1 UNK         0.0836 
    112 H112      -77.9329   23.3893  -72.1869 H         1 UNK         0.3022 
    113 H113      -77.3870   20.0888  -73.2683 H         1 UNK         0.0747 
    114 H114      -79.7456   20.4289  -72.7136 H         1 UNK         0.0793 
    115 H115      -78.7632   21.0053  -71.3804 H         1 UNK         0.0793 
    116 H116      -79.5197   22.1542  -72.4767 H         1 UNK         0.0793 
    117 H117      -77.9039   20.5876  -75.3526 H         1 UNK         0.3047 
    118 H118      -77.8042   22.4165  -77.2699 H         1 UNK         0.0822 
    119 H119      -79.8485   21.3144  -78.3108 H         1 UNK         0.0807 
    120 H120      -80.6153   21.2729  -76.7263 H         1 UNK         0.0807 
    121 H121      -79.1628   20.3295  -77.0383 H         1 UNK         0.0807 
    122 H122      -79.9363   24.1898  -76.4447 H         1 UNK         0.2946 
    123 H123      -79.5033   26.3287  -79.0624 H         1 UNK         0.1144 
    124 H124      -81.8981   26.2536  -79.7597 H         1 UNK         0.0793 
    125 H125      -82.0444   24.6078  -79.1410 H         1 UNK         0.0793 
    126 H126      -80.9929   24.9494  -80.5078 H         1 UNK         0.0793 
    127 H127      -81.6677   25.9951  -77.1370 H         1 UNK         0.2896 
@<TRIPOS>BOND
     1    1    2 1    
     2    1   67 1    
     3    1   68 1    
     4    1   69 1    
     5    2    3 2    
     6    2    4 am   BACKBONE|DICT|INTERRES
     7    4    5 1    
     8    4   70 1    
     9    5    6 1    
    10    5   65 1    
    11    5   71 1    
    12    6    7 1    
    13    6   72 1    
    14    6   73 1    
    15    7    8 1    
    16    8    9 1    
    17    8   74 1    
    18    8   75 1    
    19    9   10 ar   
    20    9   14 ar   
    21   10   11 ar   
    22   10   76 1    
    23   11   12 ar   
    24   11   48 1    
    25   12   13 ar   
    26   12   77 1    
    27   13   14 ar   
    28   13   15 1    
    29   14   78 1    
    30   15   16 1    
    31   15   79 1    
    32   15   80 1    
    33   16   17 1    
    34   17   18 1    
    35   17   81 1    
    36   17   82 1    
    37   18   19 1    
    38   18   22 1    
    39   18   83 1    
    40   19   20 am   BACKBONE|DICT|INTERRES
    41   19   21 2    
    42   20   84 1    
    43   20   85 1    
    44   22   23 am   BACKBONE|DICT|INTERRES
    45   22   86 1    
    46   23   24 2    
    47   23   25 1    
    48   25   26 1    
    49   25   27 1    
    50   25   87 1    
    51   26   88 1    
    52   26   89 1    
    53   26   90 1    
    54   27   28 am   BACKBONE|DICT|INTERRES
    55   27   91 1    
    56   28   29 2    
    57   28   30 1    
    58   30   31 1    
    59   30   32 1    
    60   30   92 1    
    61   31   93 1    
    62   31   94 1    
    63   31   95 1    
    64   32   33 am   BACKBONE|DICT|INTERRES
    65   32   96 1    
    66   33   34 2    
    67   33   35 1    
    68   35   36 1    
    69   35   37 1    
    70   35   97 1    
    71   36   98 1    
    72   36   99 1    
    73   36  100 1    
    74   37   38 am   BACKBONE|DICT|INTERRES
    75   37  101 1    
    76   38   39 2    
    77   38   40 1    
    78   40   41 1    
    79   40   42 1    
    80   40  102 1    
    81   41  103 1    
    82   41  104 1    
    83   41  105 1    
    84   42   43 am   BACKBONE|DICT|INTERRES
    85   42  106 1    
    86   43   44 2    
    87   43   45 1    
    88   45   46 1    
    89   45   49 1    
    90   45  107 1    
    91   46   47 1    
    92   46  108 1    
    93   46  109 1    
    94   47   48 1    
    95   48  110 1    
    96   48  111 1    
    97   49   50 am   BACKBONE|DICT|INTERRES
    98   49  112 1    
    99   50   51 2    
   100   50   52 1    
   101   52   53 1    
   102   52   54 1    
   103   52  113 1    
   104   53  114 1    
   105   53  115 1    
   106   53  116 1    
   107   54   55 am   BACKBONE|DICT|INTERRES
   108   54  117 1    
   109   55   56 2    
   110   55   57 1    
   111   57   58 1    
   112   57   59 1    
   113   57  118 1    
   114   58  119 1    
   115   58  120 1    
   116   58  121 1    
   117   59   60 am   BACKBONE|DICT|INTERRES
   118   59  122 1    
   119   60   61 2    
   120   60   62 1    
   121   62   63 1    
   122   62   64 1    
   123   62  123 1    
   124   63  124 1    
   125   63  125 1    
   126   63  126 1    
   127   64   65 am   BACKBONE|DICT|INTERRES
   128   64  127 1    
   129   65   66 2    
@<TRIPOS>SUBSTRUCTURE
     1 UNK         1 GROUP             0       ****    0 ROOT    
