@<TRIPOS>MOLECULE
3R135
127   129    1
SMALL
USER_CHARGES


@<TRIPOS>ATOM
      1 CA        -84.3914   27.7034  -74.1283 C.3       0 UNK        -0.1998 
      2 C         -82.9825   28.0651  -73.6841 C.2       0 UNK         0.4909 
      3 O         -82.5170   29.1721  -73.9584 O.2       0 UNK        -0.5240 
      4 N         -82.2922   27.1382  -73.0073 N.am      1 UNK        -0.4739 
      5 CA        -80.9223   27.2962  -72.5043 C.3       1 UNK         0.0864 
      6 C6        -80.6451   26.3528  -71.3065 C.3       11 UNK        -0.0881 
      7 S7        -81.4180   26.9975  -69.7766 S.3       11 UNK        -0.2682 
      8 C8        -80.1652   28.0651  -68.9583 C.3       11 UNK         0.0289 
      9 C9        -78.8850   28.2794  -69.7559 C.ar      11 UNK        -0.0687 
     10 C10       -77.8262   27.3783  -69.6191 C.ar      11 UNK        -0.0823 
     11 C11       -76.6849   27.5045  -70.4120 C.ar      11 UNK        -0.0830 
     12 C12       -76.5862   28.5660  -71.3144 C.ar      11 UNK        -0.1021 
     13 C13       -77.6278   29.4913  -71.4492 C.ar      11 UNK        -0.0753 
     14 C14       -78.7712   29.3455  -70.6551 C.ar      11 UNK        -0.0933 
     15 C15       -77.5785   30.6040  -72.4950 C.3       11 UNK         0.0166 
     16 S16       -75.8991   31.2414  -72.8330 S.3       11 UNK        -0.2615 
     17 C17       -75.7511   31.0224  -74.6433 C.3       11 UNK        -0.0865 
     18 CA        -75.0030   29.7229  -75.0788 C.3       10 UNK         0.0862 
     19 C         -74.9480   29.5704  -76.6317 C.2       10 UNK         0.5551 
     20 N         -73.8764   29.0503  -77.2188 N.am      10 UNK        -0.7319 
     21 O         -75.9025   29.9186  -77.3205 O.2       10 UNK        -0.5018 
     22 N         -73.7028   29.5279  -74.4128 N.am      10 UNK        -0.4509 
     23 C         -72.6562   30.3640  -74.4585 C.2       10 UNK         0.4899 
     24 O         -72.6685   31.4666  -75.0064 O.2       10 UNK        -0.4839 
     25 CA        -71.3543   29.8818  -73.7921 C.3       9 UNK         0.0222 
     26 CB        -71.2969   30.3649  -72.3336 C.3       9 UNK        -0.1966 
     27 N         -71.1421   28.4288  -73.8296 N.am      9 UNK        -0.4218 
     28 C         -71.0845   27.6722  -74.9357 C.2       9 UNK         0.5020 
     29 O         -71.2536   28.1174  -76.0736 O.2       9 UNK        -0.5274 
     30 CA        -70.7751   26.1773  -74.7407 C.3       8 UNK         0.0270 
     31 CB        -71.2800   25.6138  -73.3956 C.3       8 UNK        -0.1976 
     32 N         -71.3868   25.4143  -75.8262 N.am      8 UNK        -0.4313 
     33 C         -70.7384   24.6400  -76.7052 C.2       8 UNK         0.5041 
     34 O         -69.5177   24.4695  -76.6901 O.2       8 UNK        -0.5577 
     35 CA        -71.5753   23.8986  -77.7680 C.3       7 UNK         0.0284 
     36 CB        -71.4153   22.3753  -77.6178 C.3       7 UNK        -0.1958 
     37 N         -73.0024   24.2230  -77.7098 N.am      7 UNK        -0.4454 
     38 C         -73.5853   25.2570  -78.3302 C.2       7 UNK         0.5089 
     39 O         -72.9940   26.0272  -79.0867 O.2       7 UNK        -0.5125 
     40 CA        -75.0844   25.4707  -78.0473 C.3       6 UNK         0.0408 
     41 CB        -75.9274   24.7665  -79.1234 C.3       6 UNK        -0.1791 
     42 N         -75.5212   25.0144  -76.7208 N.am      6 UNK        -0.4762 
     43 C         -75.0574   25.4625  -75.5446 C.2       6 UNK         0.5007 
     44 O         -74.1541   26.2946  -75.4568 O.2       6 UNK        -0.5032 
     45 CA        -75.6671   24.8719  -74.2539 C.3       5 UNK         0.0783 
     46 C46       -75.6215   25.8800  -73.0811 C.3       11 UNK        -0.0857 
     47 S47       -75.9322   25.0781  -71.4742 S.3       11 UNK        -0.2512 
     48 C48       -75.5868   26.4571  -70.3360 C.3       11 UNK         0.0225 
     49 N         -77.0293   24.3700  -74.4616 N.am      5 UNK        -0.4615 
     50 C         -77.3507   23.1328  -74.8554 C.2       4 UNK         0.5053 
     51 O         -76.5225   22.2732  -75.1538 O.2       4 UNK        -0.5105 
     52 CA        -78.8481   22.8198  -74.9658 C.3       4 UNK         0.0263 
     53 CB        -79.4622   22.6071  -73.5715 C.3       4 UNK        -0.1981 
     54 N         -79.5570   23.9001  -75.6531 N.am      4 UNK        -0.4224 
     55 C         -79.7541   23.9584  -76.9782 C.2       3 UNK         0.4895 
     56 O         -79.3843   23.0861  -77.7645 O.2       3 UNK        -0.5091 
     57 CA        -80.4951   25.1924  -77.5268 C.3       3 UNK         0.0250 
     58 CB        -82.0071   24.9234  -77.5972 C.3       3 UNK        -0.1996 
     59 N         -80.2587   26.4022  -76.7372 N.am      3 UNK        -0.4254 
     60 C         -79.0987   27.0728  -76.7065 C.2       2 UNK         0.5004 
     61 O         -78.1341   26.7968  -77.4147 O.2       2 UNK        -0.5226 
     62 CA        -78.9837   28.2356  -75.7060 C.3       2 UNK         0.0269 
     63 CB        -79.2511   29.5738  -76.4129 C.3       2 UNK        -0.1926 
     64 N         -79.8750   28.1311  -74.5464 N.am      2 UNK        -0.4687 
     65 C         -79.8974   27.1399  -73.6457 C.2       1 UNK         0.5165 
     66 O         -79.1940   26.1307  -73.7277 O.2       1 UNK        -0.5079 
     67 H67       -84.4689   27.7612  -75.2136 H         1 UNK         0.0900 
     68 H68       -85.1099   28.4003  -73.6976 H         1 UNK         0.0900 
     69 H69       -84.6703   26.6957  -73.8210 H         1 UNK         0.0900 
     70 H70       -82.7248   26.2462  -72.8136 H         1 UNK         0.2959 
     71 H71       -80.8128   28.3225  -72.1503 H         1 UNK         0.1079 
     72 H72       -81.0496   25.3592  -71.5064 H         1 UNK         0.0837 
     73 H73       -79.5811   26.1846  -71.1485 H         1 UNK         0.0837 
     74 H74       -80.6248   29.0297  -68.7382 H         1 UNK         0.0685 
     75 H75       -79.9218   27.6281  -67.9887 H         1 UNK         0.0685 
     76 H76       -77.9159   26.5438  -68.9367 H         1 UNK         0.1434 
     77 H77       -75.7074   28.6455  -71.9381 H         1 UNK         0.1329 
     78 H78       -79.5932   30.0399  -70.7646 H         1 UNK         0.1335 
     79 H79       -78.1969   31.4444  -72.1759 H         1 UNK         0.0680 
     80 H80       -78.0303   30.2201  -73.4092 H         1 UNK         0.0680 
     81 H81       -75.2372   31.8993  -75.0394 H         1 UNK         0.1032 
     82 H82       -76.7460   31.0573  -75.0887 H         1 UNK         0.1032 
     83 H83       -75.6116   28.8822  -74.7445 H         1 UNK         0.0461 
     84 H84       -73.0803   28.7372  -76.6739 H         1 UNK         0.3453 
     85 H85       -73.8639   28.9501  -78.2202 H         1 UNK         0.3453 
     86 H86       -73.5670   28.6242  -73.9856 H         1 UNK         0.2984 
     87 H87       -70.5252   30.3404  -74.3348 H         1 UNK         0.0554 
     88 H88       -70.3379   30.1300  -71.8717 H         1 UNK         0.0847 
     89 H89       -72.0841   29.9145  -71.7273 H         1 UNK         0.0847 
     90 H90       -71.4240   31.4471  -72.2763 H         1 UNK         0.0847 
     91 H91       -70.9898   27.9758  -72.9402 H         1 UNK         0.3141 
     92 H92       -69.6884   26.0777  -74.7691 H         1 UNK         0.0743 
     93 H93       -70.7540   26.0559  -72.5489 H         1 UNK         0.0784 
     94 H94       -72.3469   25.7889  -73.2572 H         1 UNK         0.0784 
     95 H95       -71.1147   24.5377  -73.3371 H         1 UNK         0.0784 
     96 H96       -72.3776   25.5926  -75.9624 H         1 UNK         0.3213 
     97 H97       -71.1816   24.1864  -78.7454 H         1 UNK         0.0855 
     98 H98       -70.3689   22.0801  -77.7080 H         1 UNK         0.0814 
     99 H99       -71.9667   21.8397  -78.3908 H         1 UNK         0.0814 
    100 H100      -71.7692   22.0253  -76.6473 H         1 UNK         0.0814 
    101 H101      -73.5781   23.6441  -77.1153 H         1 UNK         0.3105 
    102 H102      -75.2814   26.5431  -78.1033 H         1 UNK         0.0547 
    103 H103      -75.6542   25.1128  -80.1211 H         1 UNK         0.0837 
    104 H104      -75.7878   23.6850  -79.1034 H         1 UNK         0.0837 
    105 H105      -76.9907   24.9681  -78.9942 H         1 UNK         0.0837 
    106 H106      -76.2673   24.3341  -76.7018 H         1 UNK         0.3020 
    107 H107      -75.0194   24.0325  -73.9897 H         1 UNK         0.1245 
    108 H108      -76.3596   26.6665  -73.2434 H         1 UNK         0.0781 
    109 H109      -74.6513   26.3726  -73.0075 H         1 UNK         0.0781 
    110 H110      -74.6152   26.8975  -70.5655 H         1 UNK         0.0836 
    111 H111      -75.5125   26.0683  -69.3193 H         1 UNK         0.0836 
    112 H112      -77.7787   25.0145  -74.2207 H         1 UNK         0.3022 
    113 H113      -78.9601   21.8899  -75.5279 H         1 UNK         0.0747 
    114 H114      -80.5180   22.3450  -73.6406 H         1 UNK         0.0793 
    115 H115      -78.9602   21.7936  -73.0459 H         1 UNK         0.0793 
    116 H116      -79.3790   23.4974  -72.9466 H         1 UNK         0.0793 
    117 H117      -79.8233   24.6946  -75.0839 H         1 UNK         0.3047 
    118 H118      -80.1311   25.3706  -78.5412 H         1 UNK         0.0822 
    119 H119      -82.5381   25.7589  -78.0538 H         1 UNK         0.0807 
    120 H120      -82.4354   24.7519  -76.6088 H         1 UNK         0.0807 
    121 H121      -82.2176   24.0396  -78.2012 H         1 UNK         0.0807 
    122 H122      -81.0064   26.7160  -76.1365 H         1 UNK         0.2946 
    123 H123      -77.9567   28.2341  -75.3358 H         1 UNK         0.1144 
    124 H124      -79.0716   30.4197  -75.7499 H         1 UNK         0.0793 
    125 H125      -80.2794   29.6412  -76.7703 H         1 UNK         0.0793 
    126 H126      -78.5983   29.6971  -77.2781 H         1 UNK         0.0793 
    127 H127      -80.5697   28.8640  -74.4380 H         1 UNK         0.2896 
@<TRIPOS>BOND
     1    1    2 1    
     2    1   67 1    
     3    1   68 1    
     4    1   69 1    
     5    2    3 2    
     6    2    4 am   BACKBONE|DICT|INTERRES
     7    4    5 1    
     8    4   70 1    
     9    5    6 1    
    10    5   65 1    
    11    5   71 1    
    12    6    7 1    
    13    6   72 1    
    14    6   73 1    
    15    7    8 1    
    16    8    9 1    
    17    8   74 1    
    18    8   75 1    
    19    9   10 ar   
    20    9   14 ar   
    21   10   11 ar   
    22   10   76 1    
    23   11   12 ar   
    24   11   48 1    
    25   12   13 ar   
    26   12   77 1    
    27   13   14 ar   
    28   13   15 1    
    29   14   78 1    
    30   15   16 1    
    31   15   79 1    
    32   15   80 1    
    33   16   17 1    
    34   17   18 1    
    35   17   81 1    
    36   17   82 1    
    37   18   19 1    
    38   18   22 1    
    39   18   83 1    
    40   19   20 am   BACKBONE|DICT|INTERRES
    41   19   21 2    
    42   20   84 1    
    43   20   85 1    
    44   22   23 am   BACKBONE|DICT|INTERRES
    45   22   86 1    
    46   23   24 2    
    47   23   25 1    
    48   25   26 1    
    49   25   27 1    
    50   25   87 1    
    51   26   88 1    
    52   26   89 1    
    53   26   90 1    
    54   27   28 am   BACKBONE|DICT|INTERRES
    55   27   91 1    
    56   28   29 2    
    57   28   30 1    
    58   30   31 1    
    59   30   32 1    
    60   30   92 1    
    61   31   93 1    
    62   31   94 1    
    63   31   95 1    
    64   32   33 am   BACKBONE|DICT|INTERRES
    65   32   96 1    
    66   33   34 2    
    67   33   35 1    
    68   35   36 1    
    69   35   37 1    
    70   35   97 1    
    71   36   98 1    
    72   36   99 1    
    73   36  100 1    
    74   37   38 am   BACKBONE|DICT|INTERRES
    75   37  101 1    
    76   38   39 2    
    77   38   40 1    
    78   40   41 1    
    79   40   42 1    
    80   40  102 1    
    81   41  103 1    
    82   41  104 1    
    83   41  105 1    
    84   42   43 am   BACKBONE|DICT|INTERRES
    85   42  106 1    
    86   43   44 2    
    87   43   45 1    
    88   45   46 1    
    89   45   49 1    
    90   45  107 1    
    91   46   47 1    
    92   46  108 1    
    93   46  109 1    
    94   47   48 1    
    95   48  110 1    
    96   48  111 1    
    97   49   50 am   BACKBONE|DICT|INTERRES
    98   49  112 1    
    99   50   51 2    
   100   50   52 1    
   101   52   53 1    
   102   52   54 1    
   103   52  113 1    
   104   53  114 1    
   105   53  115 1    
   106   53  116 1    
   107   54   55 am   BACKBONE|DICT|INTERRES
   108   54  117 1    
   109   55   56 2    
   110   55   57 1    
   111   57   58 1    
   112   57   59 1    
   113   57  118 1    
   114   58  119 1    
   115   58  120 1    
   116   58  121 1    
   117   59   60 am   BACKBONE|DICT|INTERRES
   118   59  122 1    
   119   60   61 2    
   120   60   62 1    
   121   62   63 1    
   122   62   64 1    
   123   62  123 1    
   124   63  124 1    
   125   63  125 1    
   126   63  126 1    
   127   64   65 am   BACKBONE|DICT|INTERRES
   128   64  127 1    
   129   65   66 2    
@<TRIPOS>SUBSTRUCTURE
     1 UNK         1 GROUP             0       ****    0 ROOT    
