@<TRIPOS>MOLECULE
3R135
127   129    1
SMALL
USER_CHARGES


@<TRIPOS>ATOM
      1 CA        -84.4309   24.4019  -69.7176 C.3       0 UNK        -0.1998 
      2 C         -84.1361   25.4387  -70.7911 C.2       0 UNK         0.4909 
      3 O         -85.0655   25.9991  -71.3729 O.2       0 UNK        -0.5240 
      4 N         -82.8490   25.6991  -71.0566 N.am      1 UNK        -0.4739 
      5 CA        -82.3762   26.6681  -72.0562 C.3       1 UNK         0.0864 
      6 C6        -80.8736   26.9915  -71.8780 C.3       11 UNK        -0.0881 
      7 S7        -80.4989   27.7002  -70.2381 S.3       11 UNK        -0.2682 
      8 C8        -79.7862   29.3198  -70.6776 C.3       11 UNK         0.0289 
      9 C9        -78.4931   29.1798  -71.4707 C.ar      11 UNK        -0.0687 
     10 C10       -78.4118   29.6530  -72.7835 C.ar      11 UNK        -0.0823 
     11 C11       -77.2345   29.5163  -73.5269 C.ar      11 UNK        -0.0830 
     12 C12       -76.1343   28.8714  -72.9400 C.ar      11 UNK        -0.1021 
     13 C13       -76.1966   28.4141  -71.6199 C.ar      11 UNK        -0.0753 
     14 C14       -77.3757   28.5767  -70.8900 C.ar      11 UNK        -0.0933 
     15 C15       -75.0030   27.7270  -70.9756 C.3       11 UNK         0.0166 
     16 S16       -73.9479   28.9219  -70.0914 S.3       11 UNK        -0.2615 
     17 C17       -72.6810   29.2975  -71.3482 C.3       11 UNK        -0.0865 
     18 CA        -73.0138   30.5438  -72.2270 C.3       10 UNK         0.0862 
     19 C         -72.4241   31.8772  -71.6740 C.2       10 UNK         0.5551 
     20 N         -72.0091   32.8115  -72.5211 N.am      10 UNK        -0.7319 
     21 O         -72.3640   32.0843  -70.4645 O.2       10 UNK        -0.5018 
     22 N         -72.7477   30.2860  -73.6527 N.am      10 UNK        -0.4509 
     23 C         -71.5635   29.9308  -74.1660 C.2       10 UNK         0.4899 
     24 O         -70.5068   29.9039  -73.5320 O.2       10 UNK        -0.4839 
     25 CA        -71.5698   29.4839  -75.6367 C.3       9 UNK         0.0222 
     26 CB        -70.7381   30.4404  -76.5063 C.3       9 UNK        -0.1966 
     27 N         -71.0664   28.1142  -75.7897 N.am      9 UNK        -0.4218 
     28 C         -71.5902   27.0255  -75.2073 C.2       9 UNK         0.5020 
     29 O         -72.5670   27.0400  -74.4563 O.2       9 UNK        -0.5274 
     30 CA        -70.9180   25.6857  -75.5090 C.3       8 UNK         0.0270 
     31 CB        -70.1348   25.1755  -74.2843 C.3       8 UNK        -0.1976 
     32 N         -71.9595   24.7351  -75.8915 N.am      8 UNK        -0.4313 
     33 C         -71.7539   23.6056  -76.5799 C.2       8 UNK         0.5041 
     34 O         -70.6409   23.1978  -76.9156 O.2       8 UNK        -0.5577 
     35 CA        -73.0010   22.8152  -77.0004 C.3       7 UNK         0.0284 
     36 CB        -73.6601   22.1199  -75.7967 C.3       7 UNK        -0.1958 
     37 N         -73.9613   23.6936  -77.6700 N.am      7 UNK        -0.4454 
     38 C         -73.9023   24.0171  -78.9714 C.2       7 UNK         0.5089 
     39 O         -73.0933   23.5279  -79.7606 O.2       7 UNK        -0.5125 
     40 CA        -74.9059   25.0633  -79.4932 C.3       6 UNK         0.0408 
     41 CB        -76.1122   24.3698  -80.1454 C.3       6 UNK        -0.1791 
     42 N         -75.3680   25.9815  -78.4488 N.am      6 UNK        -0.4762 
     43 C         -74.6024   26.9431  -77.9062 C.2       6 UNK         0.5007 
     44 O         -73.4703   27.2095  -78.3104 O.2       6 UNK        -0.5032 
     45 CA        -75.1559   27.7224  -76.6918 C.3       5 UNK         0.0783 
     46 C46       -75.5893   29.1529  -77.0934 C.3       11 UNK        -0.0857 
     47 S47       -75.5560   30.3029  -75.6785 S.3       11 UNK        -0.2512 
     48 C48       -77.2160   30.0794  -74.9507 C.3       11 UNK         0.0225 
     49 N         -76.2138   27.0078  -75.9687 N.am      5 UNK        -0.4615 
     50 C         -76.0759   25.8188  -75.3663 C.2       4 UNK         0.5053 
     51 O         -75.0120   25.2007  -75.3170 O.2       4 UNK        -0.5105 
     52 CA        -77.3539   25.1687  -74.8002 C.3       4 UNK         0.0263 
     53 CB        -77.4851   25.4387  -73.2937 C.3       4 UNK        -0.1981 
     54 N         -78.5996   25.5646  -75.4745 N.am      4 UNK        -0.4224 
     55 C         -78.8561   25.4206  -76.7840 C.2       3 UNK         0.4895 
     56 O         -78.0349   24.9819  -77.5901 O.2       3 UNK        -0.5091 
     57 CA        -80.2459   25.8753  -77.2724 C.3       3 UNK         0.0250 
     58 CB        -80.5610   25.3911  -78.7043 C.3       3 UNK        -0.1996 
     59 N         -81.3381   25.5238  -76.3546 N.am      3 UNK        -0.4254 
     60 C         -81.7117   24.2999  -75.9523 C.2       2 UNK         0.5004 
     61 O         -81.1325   23.2610  -76.2741 O.2       2 UNK        -0.5226 
     62 CA        -82.9393   24.2403  -75.0198 C.3       2 UNK         0.0269 
     63 CB        -83.4206   22.7992  -74.7649 C.3       2 UNK        -0.1926 
     64 N         -82.6902   24.8847  -73.7274 N.am      2 UNK        -0.4687 
     65 C         -82.6438   26.2062  -73.5041 C.2       1 UNK         0.5165 
     66 O         -82.7872   27.0479  -74.3927 O.2       1 UNK        -0.5079 
     67 H67       -83.5185   23.9949  -69.2821 H         1 UNK         0.0900 
     68 H68       -85.0185   24.8488  -68.9161 H         1 UNK         0.0900 
     69 H69       -85.0027   23.5764  -70.1404 H         1 UNK         0.0900 
     70 H70       -82.1268   25.2340  -70.5245 H         1 UNK         0.2959 
     71 H71       -82.9409   27.5928  -71.9157 H         1 UNK         0.1079 
     72 H72       -80.5439   27.6854  -72.6531 H         1 UNK         0.0837 
     73 H73       -80.2681   26.0921  -72.0018 H         1 UNK         0.0837 
     74 H74       -80.5276   29.8976  -71.2317 H         1 UNK         0.0685 
     75 H75       -79.5832   29.8766  -69.7619 H         1 UNK         0.0685 
     76 H76       -79.2719   30.1334  -73.2303 H         1 UNK         0.1434 
     77 H77       -75.2201   28.7208  -73.4956 H         1 UNK         0.1329 
     78 H78       -77.4318   28.2174  -69.8714 H         1 UNK         0.1335 
     79 H79       -74.4316   27.1748  -71.7235 H         1 UNK         0.0680 
     80 H80       -75.3539   26.9808  -70.2611 H         1 UNK         0.0680 
     81 H81       -72.5544   28.4074  -71.9662 H         1 UNK         0.1032 
     82 H82       -71.7179   29.4186  -70.8488 H         1 UNK         0.1032 
     83 H83       -74.0918   30.7013  -72.1915 H         1 UNK         0.0461 
     84 H84       -72.0595   32.6548  -73.5147 H         1 UNK         0.3453 
     85 H85       -71.6364   33.6762  -72.1618 H         1 UNK         0.3453 
     86 H86       -73.5572   30.3101  -74.2586 H         1 UNK         0.2984 
     87 H87       -72.5947   29.4994  -76.0101 H         1 UNK         0.0554 
     88 H88       -71.1076   31.4633  -76.4229 H         1 UNK         0.0847 
     89 H89       -70.7882   30.1652  -77.5600 H         1 UNK         0.0847 
     90 H90       -69.6885   30.4485  -76.2092 H         1 UNK         0.0847 
     91 H91       -70.2474   28.0028  -76.3695 H         1 UNK         0.3141 
     92 H92       -70.2312   25.8126  -76.3487 H         1 UNK         0.0743 
     93 H93       -70.7932   25.0013  -73.4322 H         1 UNK         0.0784 
     94 H94       -69.6147   24.2425  -74.5015 H         1 UNK         0.0784 
     95 H95       -69.3819   25.9007  -73.9732 H         1 UNK         0.0784 
     96 H96       -72.9064   25.0088  -75.6383 H         1 UNK         0.3213 
     97 H97       -72.6859   22.0351  -77.6973 H         1 UNK         0.0855 
     98 H98       -73.9728   22.8272  -75.0287 H         1 UNK         0.0814 
     99 H99       -72.9658   21.4217  -75.3276 H         1 UNK         0.0814 
    100 H100      -74.5369   21.5484  -76.1014 H         1 UNK         0.0814 
    101 H101      -74.6203   24.1818  -77.0742 H         1 UNK         0.3105 
    102 H102      -74.4017   25.6512  -80.2633 H         1 UNK         0.0547 
    103 H103      -75.7974   23.7585  -80.9920 H         1 UNK         0.0837 
    104 H104      -76.6271   23.7109  -79.4454 H         1 UNK         0.0837 
    105 H105      -76.8360   25.0940  -80.5190 H         1 UNK         0.0837 
    106 H106      -76.2911   25.7975  -78.0640 H         1 UNK         0.3020 
    107 H107      -74.3194   27.8120  -76.0029 H         1 UNK         0.1245 
    108 H108      -76.5713   29.1552  -77.5695 H         1 UNK         0.0781 
    109 H109      -74.9032   29.5724  -77.8325 H         1 UNK         0.0781 
    110 H110      -77.8311   29.4451  -75.5888 H         1 UNK         0.0836 
    111 H111      -77.6991   31.0578  -74.9480 H         1 UNK         0.0836 
    112 H112      -77.1273   27.4322  -75.9714 H         1 UNK         0.3022 
    113 H113      -77.2410   24.0918  -74.9408 H         1 UNK         0.0747 
    114 H114      -78.2444   24.7998  -72.8430 H         1 UNK         0.0793 
    115 H115      -76.5473   25.2400  -72.7725 H         1 UNK         0.0793 
    116 H116      -77.7575   26.4744  -73.0926 H         1 UNK         0.0793 
    117 H117      -79.3334   25.9315  -74.8876 H         1 UNK         0.3047 
    118 H118      -80.2104   26.9654  -77.2983 H         1 UNK         0.0822 
    119 H119      -81.5336   25.7503  -79.0404 H         1 UNK         0.0807 
    120 H120      -80.5632   24.3026  -78.7715 H         1 UNK         0.0807 
    121 H121      -79.8190   25.7578  -79.4149 H         1 UNK         0.0807 
    122 H122      -81.8620   26.3048  -75.9684 H         1 UNK         0.2946 
    123 H123      -83.7492   24.7732  -75.5242 H         1 UNK         0.1144 
    124 H124      -83.6456   22.2905  -75.7034 H         1 UNK         0.0793 
    125 H125      -84.3313   22.7853  -74.1656 H         1 UNK         0.0793 
    126 H126      -82.6672   22.2063  -74.2447 H         1 UNK         0.0793 
    127 H127      -82.5427   24.2706  -72.9395 H         1 UNK         0.2896 
@<TRIPOS>BOND
     1    1    2 1    
     2    1   67 1    
     3    1   68 1    
     4    1   69 1    
     5    2    3 2    
     6    2    4 am   BACKBONE|DICT|INTERRES
     7    4    5 1    
     8    4   70 1    
     9    5    6 1    
    10    5   65 1    
    11    5   71 1    
    12    6    7 1    
    13    6   72 1    
    14    6   73 1    
    15    7    8 1    
    16    8    9 1    
    17    8   74 1    
    18    8   75 1    
    19    9   10 ar   
    20    9   14 ar   
    21   10   11 ar   
    22   10   76 1    
    23   11   12 ar   
    24   11   48 1    
    25   12   13 ar   
    26   12   77 1    
    27   13   14 ar   
    28   13   15 1    
    29   14   78 1    
    30   15   16 1    
    31   15   79 1    
    32   15   80 1    
    33   16   17 1    
    34   17   18 1    
    35   17   81 1    
    36   17   82 1    
    37   18   19 1    
    38   18   22 1    
    39   18   83 1    
    40   19   20 am   BACKBONE|DICT|INTERRES
    41   19   21 2    
    42   20   84 1    
    43   20   85 1    
    44   22   23 am   BACKBONE|DICT|INTERRES
    45   22   86 1    
    46   23   24 2    
    47   23   25 1    
    48   25   26 1    
    49   25   27 1    
    50   25   87 1    
    51   26   88 1    
    52   26   89 1    
    53   26   90 1    
    54   27   28 am   BACKBONE|DICT|INTERRES
    55   27   91 1    
    56   28   29 2    
    57   28   30 1    
    58   30   31 1    
    59   30   32 1    
    60   30   92 1    
    61   31   93 1    
    62   31   94 1    
    63   31   95 1    
    64   32   33 am   BACKBONE|DICT|INTERRES
    65   32   96 1    
    66   33   34 2    
    67   33   35 1    
    68   35   36 1    
    69   35   37 1    
    70   35   97 1    
    71   36   98 1    
    72   36   99 1    
    73   36  100 1    
    74   37   38 am   BACKBONE|DICT|INTERRES
    75   37  101 1    
    76   38   39 2    
    77   38   40 1    
    78   40   41 1    
    79   40   42 1    
    80   40  102 1    
    81   41  103 1    
    82   41  104 1    
    83   41  105 1    
    84   42   43 am   BACKBONE|DICT|INTERRES
    85   42  106 1    
    86   43   44 2    
    87   43   45 1    
    88   45   46 1    
    89   45   49 1    
    90   45  107 1    
    91   46   47 1    
    92   46  108 1    
    93   46  109 1    
    94   47   48 1    
    95   48  110 1    
    96   48  111 1    
    97   49   50 am   BACKBONE|DICT|INTERRES
    98   49  112 1    
    99   50   51 2    
   100   50   52 1    
   101   52   53 1    
   102   52   54 1    
   103   52  113 1    
   104   53  114 1    
   105   53  115 1    
   106   53  116 1    
   107   54   55 am   BACKBONE|DICT|INTERRES
   108   54  117 1    
   109   55   56 2    
   110   55   57 1    
   111   57   58 1    
   112   57   59 1    
   113   57  118 1    
   114   58  119 1    
   115   58  120 1    
   116   58  121 1    
   117   59   60 am   BACKBONE|DICT|INTERRES
   118   59  122 1    
   119   60   61 2    
   120   60   62 1    
   121   62   63 1    
   122   62   64 1    
   123   62  123 1    
   124   63  124 1    
   125   63  125 1    
   126   63  126 1    
   127   64   65 am   BACKBONE|DICT|INTERRES
   128   64  127 1    
   129   65   66 2    
@<TRIPOS>SUBSTRUCTURE
     1 UNK         1 GROUP             0       ****    0 ROOT    
