@<TRIPOS>MOLECULE
3R135
127   129    1
SMALL
USER_CHARGES


@<TRIPOS>ATOM
      1 CA        -83.1742   28.9986  -72.0681 C.3       0 UNK        -0.1998 
      2 C         -83.1344   28.6439  -73.5468 C.2       0 UNK         0.4909 
      3 O         -84.1711   28.3274  -74.1306 O.2       0 UNK        -0.5240 
      4 N         -81.9427   28.6934  -74.1561 N.am      1 UNK        -0.4739 
      5 CA        -81.7017   28.3524  -75.5650 C.3       1 UNK         0.0864 
      6 C6        -80.3965   29.0014  -76.0979 C.3       11 UNK        -0.0881 
      7 S7        -78.8852   28.4660  -75.2253 S.3       11 UNK        -0.2682 
      8 C8        -78.6615   29.8016  -74.0010 C.3       11 UNK         0.0289 
      9 C9        -77.7693   29.3500  -72.8527 C.ar      11 UNK        -0.0687 
     10 C10       -78.0649   28.1700  -72.1679 C.ar      11 UNK        -0.0823 
     11 C11       -77.2086   27.6877  -71.1787 C.ar      11 UNK        -0.0830 
     12 C12       -76.0882   28.4378  -70.8137 C.ar      11 UNK        -0.1021 
     13 C13       -75.7928   29.6445  -71.4590 C.ar      11 UNK        -0.0753 
     14 C14       -76.6411   30.0900  -72.4860 C.ar      11 UNK        -0.0933 
     15 C15       -74.5333   30.3982  -71.0227 C.3       11 UNK         0.0166 
     16 S16       -74.0596   31.8200  -72.0679 S.3       11 UNK        -0.2615 
     17 C17       -72.2390   31.8015  -71.9300 C.3       11 UNK        -0.0865 
     18 CA        -71.5717   31.2107  -73.2061 C.3       10 UNK         0.0862 
     19 C         -70.0374   31.4838  -73.2916 C.2       10 UNK         0.5551 
     20 N         -69.2521   30.6375  -73.9498 N.am      10 UNK        -0.7319 
     21 O         -69.5512   32.4916  -72.7835 O.2       10 UNK        -0.5018 
     22 N         -71.9522   29.8114  -73.4621 N.am      10 UNK        -0.4509 
     23 C         -71.5958   28.7446  -72.7294 C.2       10 UNK         0.4899 
     24 O         -70.9896   28.8186  -71.6603 O.2       10 UNK        -0.4839 
     25 CA        -71.9519   27.3476  -73.2798 C.3       9 UNK         0.0222 
     26 CB        -73.2002   26.8081  -72.5666 C.3       9 UNK        -0.1966 
     27 N         -72.1725   27.3028  -74.7294 N.am      9 UNK        -0.4218 
     28 C         -71.2997   27.6950  -75.6700 C.2       9 UNK         0.5020 
     29 O         -70.1395   28.0367  -75.4324 O.2       9 UNK        -0.5274 
     30 CA        -71.8299   27.7897  -77.1117 C.3       8 UNK         0.0270 
     31 CB        -71.5097   26.5015  -77.8861 C.3       8 UNK        -0.1976 
     32 N         -73.2694   28.0584  -77.2077 N.am      8 UNK        -0.4313 
     33 C         -73.9438   29.0841  -76.6701 C.2       8 UNK         0.5041 
     34 O         -73.4058   29.9723  -76.0084 O.2       8 UNK        -0.5577 
     35 CA        -75.4763   29.1155  -76.8521 C.3       7 UNK         0.0284 
     36 CB        -75.8770   30.0439  -78.0138 C.3       7 UNK        -0.1958 
     37 N         -76.1238   27.7978  -76.9735 N.am      7 UNK        -0.4454 
     38 C         -75.9842   26.8693  -77.9308 C.2       7 UNK         0.5089 
     39 O         -75.2699   27.0187  -78.9234 O.2       7 UNK        -0.5125 
     40 CA        -76.7090   25.5272  -77.7030 C.3       6 UNK         0.0408 
     41 CB        -76.1478   24.4019  -78.5961 C.3       6 UNK        -0.1791 
     42 N         -76.7327   25.0869  -76.3010 N.am      6 UNK        -0.4762 
     43 C         -75.6916   24.9349  -75.4636 C.2       6 UNK         0.5007 
     44 O         -74.5290   25.2332  -75.7429 O.2       6 UNK        -0.5032 
     45 CA        -76.0015   24.3584  -74.0708 C.3       5 UNK         0.0783 
     46 C46       -76.5974   25.4482  -73.1536 C.3       11 UNK        -0.0857 
     47 S47       -76.4526   25.0210  -71.3834 S.3       11 UNK        -0.2512 
     48 C48       -77.4613   26.3137  -70.5759 C.3       11 UNK         0.0225 
     49 N         -76.9025   23.2124  -74.1931 N.am      5 UNK        -0.4615 
     50 C         -76.5358   21.9298  -74.0830 C.2       4 UNK         0.5053 
     51 O         -75.3912   21.5617  -73.8178 O.2       4 UNK        -0.5105 
     52 CA        -77.6308   20.8680  -74.3058 C.3       4 UNK         0.0263 
     53 CB        -78.2464   20.4451  -72.9621 C.3       4 UNK        -0.1981 
     54 N         -78.6974   21.3243  -75.2005 N.am      4 UNK        -0.4224 
     55 C         -78.5432   21.5593  -76.5114 C.2       3 UNK         0.4895 
     56 O         -77.5188   21.2837  -77.1357 O.2       3 UNK        -0.5091 
     57 CA        -79.7138   22.2316  -77.2551 C.3       3 UNK         0.0250 
     58 CB        -80.4539   21.2050  -78.1282 C.3       3 UNK        -0.1996 
     59 N         -80.6867   22.9191  -76.3944 N.am      3 UNK        -0.4254 
     60 C         -80.4236   23.9739  -75.6106 C.2       2 UNK         0.5004 
     61 O         -79.2955   24.4434  -75.4447 O.2       2 UNK        -0.5226 
     62 CA        -81.6057   24.5543  -74.8215 C.3       2 UNK         0.0269 
     63 CB        -81.5922   24.0162  -73.3812 C.3       2 UNK        -0.1926 
     64 N         -81.5704   26.0163  -74.7807 N.am      2 UNK        -0.4687 
     65 C         -81.7588   26.8291  -75.8318 C.2       1 UNK         0.5165 
     66 O         -82.0008   26.4243  -76.9704 O.2       1 UNK        -0.5079 
     67 H67       -83.5567   28.1572  -71.4909 H         1 UNK         0.0900 
     68 H68       -83.8327   29.8512  -71.9049 H         1 UNK         0.0900 
     69 H69       -82.1874   29.2538  -71.6821 H         1 UNK         0.0900 
     70 H70       -81.1236   28.9563  -73.6290 H         1 UNK         0.2959 
     71 H71       -82.5237   28.7802  -76.1440 H         1 UNK         0.1079 
     72 H72       -80.2712   28.7752  -77.1586 H         1 UNK         0.0837 
     73 H73       -80.4743   30.0884  -76.0431 H         1 UNK         0.0837 
     74 H74       -78.2404   30.6722  -74.5062 H         1 UNK         0.0685 
     75 H75       -79.6230   30.1127  -73.5933 H         1 UNK         0.0685 
     76 H76       -78.9286   27.5869  -72.4562 H         1 UNK         0.1434 
     77 H77       -75.4237   28.0610  -70.0478 H         1 UNK         0.1329 
     78 H78       -76.4290   31.0062  -73.0170 H         1 UNK         0.1335 
     79 H79       -74.6693   30.7536  -70.0005 H         1 UNK         0.0680 
     80 H80       -73.7080   29.6872  -70.9924 H         1 UNK         0.0680 
     81 H81       -71.9238   31.2647  -71.0342 H         1 UNK         0.1032 
     82 H82       -71.9257   32.8361  -71.7802 H         1 UNK         0.1032 
     83 H83       -71.9759   31.7637  -74.0549 H         1 UNK         0.0461 
     84 H84       -68.2643   30.8265  -74.0100 H         1 UNK         0.3453 
     85 H85       -69.6346   29.8055  -74.3840 H         1 UNK         0.3453 
     86 H86       -72.4586   29.6678  -74.3318 H         1 UNK         0.2984 
     87 H87       -71.1132   26.6851  -73.0580 H         1 UNK         0.0554 
     88 H88       -73.4319   25.7908  -72.8804 H         1 UNK         0.0847 
     89 H89       -74.0706   27.4340  -72.7645 H         1 UNK         0.0847 
     90 H90       -73.0575   26.7865  -71.4853 H         1 UNK         0.0847 
     91 H91       -73.0840   26.9952  -75.0435 H         1 UNK         0.3141 
     92 H92       -71.3131   28.6219  -77.5935 H         1 UNK         0.0743 
     93 H93       -72.0367   25.6416  -77.4695 H         1 UNK         0.0784 
     94 H94       -71.7896   26.5893  -78.9362 H         1 UNK         0.0784 
     95 H95       -70.4420   26.2794  -77.8532 H         1 UNK         0.0784 
     96 H96       -73.8137   27.4194  -77.7810 H         1 UNK         0.3213 
     97 H97       -75.8782   29.5503  -75.9350 H         1 UNK         0.0855 
     98 H98       -75.4775   31.0477  -77.8631 H         1 UNK         0.0814 
     99 H99       -76.9605   30.1346  -78.0907 H         1 UNK         0.0814 
    100 H100      -75.4996   29.6865  -78.9722 H         1 UNK         0.0814 
    101 H101      -76.7384   27.5596  -76.2055 H         1 UNK         0.3105 
    102 H102      -77.7494   25.6914  -77.9876 H         1 UNK         0.0547 
    103 H103      -76.2185   24.6634  -79.6526 H         1 UNK         0.0837 
    104 H104      -75.0980   24.2018  -78.3782 H         1 UNK         0.0837 
    105 H105      -76.7001   23.4735  -78.4596 H         1 UNK         0.0837 
    106 H106      -77.6632   24.8603  -75.9476 H         1 UNK         0.3020 
    107 H107      -75.0454   24.0393  -73.6492 H         1 UNK         0.1245 
    108 H108      -77.6462   25.6259  -73.3998 H         1 UNK         0.0781 
    109 H109      -76.0837   26.3988  -73.3043 H         1 UNK         0.0781 
    110 H110      -77.2381   26.3283  -69.5082 H         1 UNK         0.0836 
    111 H111      -78.5157   26.0467  -70.6635 H         1 UNK         0.0836 
    112 H112      -77.8569   23.4288  -74.4568 H         1 UNK         0.3022 
    113 H113      -77.1572   19.9940  -74.7583 H         1 UNK         0.0747 
    114 H114      -78.9758   19.6455  -73.0928 H         1 UNK         0.0793 
    115 H115      -77.4786   20.0732  -72.2822 H         1 UNK         0.0793 
    116 H116      -78.7445   21.2788  -72.4651 H         1 UNK         0.0793 
    117 H117      -79.5830   21.5560  -74.7761 H         1 UNK         0.3047 
    118 H118      -79.2753   22.9852  -77.9128 H         1 UNK         0.0822 
    119 H119      -81.2161   21.6825  -78.7444 H         1 UNK         0.0807 
    120 H120      -80.9399   20.4373  -77.5247 H         1 UNK         0.0807 
    121 H121      -79.7652   20.6986  -78.8062 H         1 UNK         0.0807 
    122 H122      -81.6378   22.5826  -76.4472 H         1 UNK         0.2946 
    123 H123      -82.5390   24.2544  -75.3035 H         1 UNK         0.1144 
    124 H124      -81.6557   22.9273  -73.3678 H         1 UNK         0.0793 
    125 H125      -82.4394   24.3941  -72.8083 H         1 UNK         0.0793 
    126 H126      -80.6788   24.2963  -72.8539 H         1 UNK         0.0793 
    127 H127      -81.3536   26.4414  -73.8924 H         1 UNK         0.2896 
@<TRIPOS>BOND
     1    1    2 1    
     2    1   67 1    
     3    1   68 1    
     4    1   69 1    
     5    2    3 2    
     6    2    4 am   BACKBONE|DICT|INTERRES
     7    4    5 1    
     8    4   70 1    
     9    5    6 1    
    10    5   65 1    
    11    5   71 1    
    12    6    7 1    
    13    6   72 1    
    14    6   73 1    
    15    7    8 1    
    16    8    9 1    
    17    8   74 1    
    18    8   75 1    
    19    9   10 ar   
    20    9   14 ar   
    21   10   11 ar   
    22   10   76 1    
    23   11   12 ar   
    24   11   48 1    
    25   12   13 ar   
    26   12   77 1    
    27   13   14 ar   
    28   13   15 1    
    29   14   78 1    
    30   15   16 1    
    31   15   79 1    
    32   15   80 1    
    33   16   17 1    
    34   17   18 1    
    35   17   81 1    
    36   17   82 1    
    37   18   19 1    
    38   18   22 1    
    39   18   83 1    
    40   19   20 am   BACKBONE|DICT|INTERRES
    41   19   21 2    
    42   20   84 1    
    43   20   85 1    
    44   22   23 am   BACKBONE|DICT|INTERRES
    45   22   86 1    
    46   23   24 2    
    47   23   25 1    
    48   25   26 1    
    49   25   27 1    
    50   25   87 1    
    51   26   88 1    
    52   26   89 1    
    53   26   90 1    
    54   27   28 am   BACKBONE|DICT|INTERRES
    55   27   91 1    
    56   28   29 2    
    57   28   30 1    
    58   30   31 1    
    59   30   32 1    
    60   30   92 1    
    61   31   93 1    
    62   31   94 1    
    63   31   95 1    
    64   32   33 am   BACKBONE|DICT|INTERRES
    65   32   96 1    
    66   33   34 2    
    67   33   35 1    
    68   35   36 1    
    69   35   37 1    
    70   35   97 1    
    71   36   98 1    
    72   36   99 1    
    73   36  100 1    
    74   37   38 am   BACKBONE|DICT|INTERRES
    75   37  101 1    
    76   38   39 2    
    77   38   40 1    
    78   40   41 1    
    79   40   42 1    
    80   40  102 1    
    81   41  103 1    
    82   41  104 1    
    83   41  105 1    
    84   42   43 am   BACKBONE|DICT|INTERRES
    85   42  106 1    
    86   43   44 2    
    87   43   45 1    
    88   45   46 1    
    89   45   49 1    
    90   45  107 1    
    91   46   47 1    
    92   46  108 1    
    93   46  109 1    
    94   47   48 1    
    95   48  110 1    
    96   48  111 1    
    97   49   50 am   BACKBONE|DICT|INTERRES
    98   49  112 1    
    99   50   51 2    
   100   50   52 1    
   101   52   53 1    
   102   52   54 1    
   103   52  113 1    
   104   53  114 1    
   105   53  115 1    
   106   53  116 1    
   107   54   55 am   BACKBONE|DICT|INTERRES
   108   54  117 1    
   109   55   56 2    
   110   55   57 1    
   111   57   58 1    
   112   57   59 1    
   113   57  118 1    
   114   58  119 1    
   115   58  120 1    
   116   58  121 1    
   117   59   60 am   BACKBONE|DICT|INTERRES
   118   59  122 1    
   119   60   61 2    
   120   60   62 1    
   121   62   63 1    
   122   62   64 1    
   123   62  123 1    
   124   63  124 1    
   125   63  125 1    
   126   63  126 1    
   127   64   65 am   BACKBONE|DICT|INTERRES
   128   64  127 1    
   129   65   66 2    
@<TRIPOS>SUBSTRUCTURE
     1 UNK         1 GROUP             0       ****    0 ROOT    
