@<TRIPOS>MOLECULE
3R135
127   129    1
SMALL
USER_CHARGES


@<TRIPOS>ATOM
      1 CA        -85.0199   28.5278  -73.9537 C.3       0 UNK        -0.1998 
      2 C         -83.5003   28.4693  -73.9206 C.2       0 UNK         0.4909 
      3 O         -82.8413   29.3343  -74.4971 O.2       0 UNK        -0.5240 
      4 N         -82.9382   27.4475  -73.2613 N.am      1 UNK        -0.4739 
      5 CA        -81.4911   27.2425  -73.0976 C.3       1 UNK         0.0864 
      6 C6        -81.1499   26.5875  -71.7341 C.3       11 UNK        -0.0881 
      7 S7        -81.3606   27.7962  -70.3842 S.3       11 UNK        -0.2682 
      8 C8        -79.6756   27.8946  -69.6797 C.3       11 UNK         0.0289 
      9 C9        -78.5636   28.2694  -70.6633 C.ar      11 UNK        -0.0687 
     10 C10       -78.7648   29.1792  -71.7102 C.ar      11 UNK        -0.0823 
     11 C11       -77.7245   29.5110  -72.5876 C.ar      11 UNK        -0.0830 
     12 C12       -76.4569   28.9584  -72.3760 C.ar      11 UNK        -0.1021 
     13 C13       -76.2339   28.0695  -71.3225 C.ar      11 UNK        -0.0753 
     14 C14       -77.2910   27.7196  -70.4797 C.ar      11 UNK        -0.0933 
     15 C15       -74.8402   27.5179  -71.0791 C.3       11 UNK         0.0166 
     16 S16       -73.9150   28.6226  -69.9694 S.3       11 UNK        -0.2615 
     17 C17       -72.1916   28.2944  -70.4666 C.3       11 UNK        -0.0865 
     18 CA        -71.6381   29.4114  -71.3887 C.3       10 UNK         0.0862 
     19 C         -70.1040   29.2594  -71.5752 C.2       10 UNK         0.5551 
     20 N         -69.3116   29.8815  -70.7134 N.am      10 UNK        -0.7319 
     21 O         -69.6300   28.5517  -72.4617 O.2       10 UNK        -0.5018 
     22 N         -72.3490   29.4388  -72.6733 N.am      10 UNK        -0.4509 
     23 C         -72.2865   30.4195  -73.5786 C.2       10 UNK         0.4899 
     24 O         -71.7046   31.4899  -73.3945 O.2       10 UNK        -0.4839 
     25 CA        -72.9681   30.1247  -74.9294 C.3       9 UNK         0.0222 
     26 CB        -72.9927   31.3456  -75.8669 C.3       9 UNK        -0.1966 
     27 N         -72.3119   29.0060  -75.6127 N.am      9 UNK        -0.4218 
     28 C         -72.4993   27.7148  -75.3146 C.2       9 UNK         0.5020 
     29 O         -73.2765   27.3237  -74.4419 O.2       9 UNK        -0.5274 
     30 CA        -71.6364   26.6970  -76.0622 C.3       8 UNK         0.0270 
     31 CB        -70.4921   26.1943  -75.1612 C.3       8 UNK        -0.1976 
     32 N         -72.4813   25.5865  -76.4915 N.am      8 UNK        -0.4313 
     33 C         -72.1656   24.7160  -77.4590 C.2       8 UNK         0.5041 
     34 O         -71.0858   24.7094  -78.0525 O.2       8 UNK        -0.5577 
     35 CA        -73.2486   23.7076  -77.8677 C.3       7 UNK         0.0284 
     36 CB        -73.4024   22.5880  -76.8239 C.3       7 UNK        -0.1958 
     37 N         -74.5272   24.3860  -78.0830 N.am      7 UNK        -0.4454 
     38 C         -74.8519   25.0276  -79.2155 C.2       7 UNK         0.5089 
     39 O         -74.1462   25.0296  -80.2250 O.2       7 UNK        -0.5125 
     40 CA        -76.1858   25.7956  -79.2447 C.3       6 UNK         0.0408 
     41 CB        -77.2667   24.9535  -79.9394 C.3       6 UNK        -0.1791 
     42 N         -76.6507   26.2040  -77.9153 N.am      6 UNK        -0.4762 
     43 C         -76.0887   27.1918  -77.1989 C.2       6 UNK         0.5007 
     44 O         -75.1629   27.8876  -77.6173 O.2       6 UNK        -0.5032 
     45 CA        -76.6206   27.4259  -75.7693 C.3       5 UNK         0.0783 
     46 C46       -77.7320   28.5124  -75.7370 C.3       11 UNK        -0.0857 
     47 S47       -77.0773   30.1507  -75.2760 S.3       11 UNK        -0.2512 
     48 C48       -77.9805   30.5041  -73.7226 C.3       11 UNK         0.0225 
     49 N         -77.0376   26.1976  -75.0858 N.am      5 UNK        -0.4615 
     50 C         -76.2475   25.1504  -74.8127 C.2       4 UNK         0.5053 
     51 O         -75.1020   25.0242  -75.2420 O.2       4 UNK        -0.5105 
     52 CA        -76.8470   24.0475  -73.9320 C.3       4 UNK         0.0263 
     53 CB        -76.9775   24.5254  -72.4762 C.3       4 UNK        -0.1981 
     54 N         -78.1597   23.6536  -74.4370 N.am      4 UNK        -0.4224 
     55 C         -78.3842   22.6017  -75.2355 C.2       3 UNK         0.4895 
     56 O         -77.5218   21.7816  -75.5522 O.2       3 UNK        -0.5091 
     57 CA        -79.8128   22.4328  -75.7892 C.3       3 UNK         0.0250 
     58 CB        -80.6260   21.4837  -74.8943 C.3       3 UNK        -0.1996 
     59 N         -80.5479   23.6920  -75.9502 N.am      3 UNK        -0.4254 
     60 C         -80.1755   24.6982  -76.7535 C.2       2 UNK         0.5004 
     61 O         -79.1656   24.6812  -77.4550 O.2       2 UNK        -0.5226 
     62 CA        -81.0418   25.9669  -76.7286 C.3       2 UNK         0.0269 
     63 CB        -82.2134   25.8368  -77.7145 C.3       2 UNK        -0.1926 
     64 N         -81.5560   26.3613  -75.4095 N.am      2 UNK        -0.4687 
     65 C         -80.8358   26.5114  -74.2869 C.2       1 UNK         0.5165 
     66 O         -79.6726   26.1244  -74.1759 O.2       1 UNK        -0.5079 
     67 H67       -85.3684   29.4564  -73.5024 H         1 UNK         0.0900 
     68 H68       -85.3750   28.4952  -74.9834 H         1 UNK         0.0900 
     69 H69       -85.4724   27.6974  -73.4119 H         1 UNK         0.0900 
     70 H70       -83.5298   26.7637  -72.8099 H         1 UNK         0.2959 
     71 H71       -81.0128   28.2225  -73.1164 H         1 UNK         0.1079 
     72 H72       -81.7864   25.7213  -71.5467 H         1 UNK         0.0837 
     73 H73       -80.1248   26.2142  -71.7036 H         1 UNK         0.0837 
     74 H74       -79.6820   28.6291  -68.8735 H         1 UNK         0.0685 
     75 H75       -79.4539   26.9324  -69.2151 H         1 UNK         0.0685 
     76 H76       -79.7345   29.6390  -71.8373 H         1 UNK         0.1434 
     77 H77       -75.6328   29.2313  -73.0194 H         1 UNK         0.1329 
     78 H78       -77.1124   27.0358  -69.6611 H         1 UNK         0.1335 
     79 H79       -74.3197   27.4079  -72.0301 H         1 UNK         0.0680 
     80 H80       -74.8905   26.5218  -70.6374 H         1 UNK         0.0680 
     81 H81       -71.6008   28.2295  -69.5506 H         1 UNK         0.1032 
     82 H82       -72.1126   27.3154  -70.9436 H         1 UNK         0.1032 
     83 H83       -71.8169   30.3725  -70.9016 H         1 UNK         0.0461 
     84 H84       -69.6906   30.4569  -69.9772 H         1 UNK         0.3453 
     85 H85       -68.3127   29.7828  -70.8074 H         1 UNK         0.3453 
     86 H86       -72.7900   28.5726  -72.9635 H         1 UNK         0.2984 
     87 H87       -74.0047   29.8525  -74.7215 H         1 UNK         0.0554 
     88 H88       -73.4976   32.1889  -75.3938 H         1 UNK         0.0847 
     89 H89       -73.5323   31.1245  -76.7881 H         1 UNK         0.0847 
     90 H90       -71.9878   31.6744  -76.1346 H         1 UNK         0.0847 
     91 H91       -71.6234   29.2488  -76.3106 H         1 UNK         0.3141 
     92 H92       -71.2134   27.1764  -76.9478 H         1 UNK         0.0743 
     93 H93       -70.8744   25.6834  -74.2765 H         1 UNK         0.0784 
     94 H94       -69.8364   25.5030  -75.6904 H         1 UNK         0.0784 
     95 H95       -69.8741   27.0243  -74.8162 H         1 UNK         0.0784 
     96 H96       -73.3883   25.5249  -76.0287 H         1 UNK         0.3213 
     97 H97       -72.9360   23.2401  -78.8044 H         1 UNK         0.0855 
     98 H98       -73.6585   22.9722  -75.8370 H         1 UNK         0.0814 
     99 H99       -72.4715   22.0295  -76.7192 H         1 UNK         0.0814 
    100 H100      -74.1757   21.8772  -77.1159 H         1 UNK         0.0814 
    101 H101      -75.1256   24.4938  -77.2725 H         1 UNK         0.3105 
    102 H102      -76.0323   26.6974  -79.8414 H         1 UNK         0.0547 
    103 H103      -76.9690   24.6995  -80.9575 H         1 UNK         0.0837 
    104 H104      -77.4489   24.0166  -79.4115 H         1 UNK         0.0837 
    105 H105      -78.2120   25.4925  -80.0036 H         1 UNK         0.0837 
    106 H106      -77.4294   25.6791  -77.5251 H         1 UNK         0.3020 
    107 H107      -75.7660   27.7846  -75.1919 H         1 UNK         0.1245 
    108 H108      -78.5041   28.2556  -75.0137 H         1 UNK         0.0781 
    109 H109      -78.2574   28.5953  -76.6906 H         1 UNK         0.0781 
    110 H110      -79.0465   30.5500  -73.9518 H         1 UNK         0.0836 
    111 H111      -77.6981   31.4995  -73.3778 H         1 UNK         0.0836 
    112 H112      -77.9822   26.1996  -74.7064 H         1 UNK         0.3022 
    113 H113      -76.1642   23.1951  -73.9463 H         1 UNK         0.0747 
    114 H114      -77.3689   23.7361  -71.8346 H         1 UNK         0.0793 
    115 H115      -76.0057   24.8163  -72.0767 H         1 UNK         0.0793 
    116 H116      -77.6392   25.3880  -72.3855 H         1 UNK         0.0793 
    117 H117      -78.9160   24.3116  -74.2782 H         1 UNK         0.3047 
    118 H118      -79.7226   21.9786  -76.7783 H         1 UNK         0.0822 
    119 H119      -81.6067   21.2757  -75.3226 H         1 UNK         0.0807 
    120 H120      -80.7746   21.8981  -73.8963 H         1 UNK         0.0807 
    121 H121      -80.1166   20.5261  -74.7768 H         1 UNK         0.0807 
    122 H122      -81.3840   23.8101  -75.3965 H         1 UNK         0.2946 
    123 H123      -80.4033   26.7838  -77.0719 H         1 UNK         0.1144 
    124 H124      -82.7542   26.7780  -77.8156 H         1 UNK         0.0793 
    125 H125      -82.9244   25.0725  -77.3985 H         1 UNK         0.0793 
    126 H126      -81.8591   25.5619  -78.7093 H         1 UNK         0.0793 
    127 H127      -82.5049   26.7059  -75.3878 H         1 UNK         0.2896 
@<TRIPOS>BOND
     1    1    2 1    
     2    1   67 1    
     3    1   68 1    
     4    1   69 1    
     5    2    3 2    
     6    2    4 am   BACKBONE|DICT|INTERRES
     7    4    5 1    
     8    4   70 1    
     9    5    6 1    
    10    5   65 1    
    11    5   71 1    
    12    6    7 1    
    13    6   72 1    
    14    6   73 1    
    15    7    8 1    
    16    8    9 1    
    17    8   74 1    
    18    8   75 1    
    19    9   10 ar   
    20    9   14 ar   
    21   10   11 ar   
    22   10   76 1    
    23   11   12 ar   
    24   11   48 1    
    25   12   13 ar   
    26   12   77 1    
    27   13   14 ar   
    28   13   15 1    
    29   14   78 1    
    30   15   16 1    
    31   15   79 1    
    32   15   80 1    
    33   16   17 1    
    34   17   18 1    
    35   17   81 1    
    36   17   82 1    
    37   18   19 1    
    38   18   22 1    
    39   18   83 1    
    40   19   20 am   BACKBONE|DICT|INTERRES
    41   19   21 2    
    42   20   84 1    
    43   20   85 1    
    44   22   23 am   BACKBONE|DICT|INTERRES
    45   22   86 1    
    46   23   24 2    
    47   23   25 1    
    48   25   26 1    
    49   25   27 1    
    50   25   87 1    
    51   26   88 1    
    52   26   89 1    
    53   26   90 1    
    54   27   28 am   BACKBONE|DICT|INTERRES
    55   27   91 1    
    56   28   29 2    
    57   28   30 1    
    58   30   31 1    
    59   30   32 1    
    60   30   92 1    
    61   31   93 1    
    62   31   94 1    
    63   31   95 1    
    64   32   33 am   BACKBONE|DICT|INTERRES
    65   32   96 1    
    66   33   34 2    
    67   33   35 1    
    68   35   36 1    
    69   35   37 1    
    70   35   97 1    
    71   36   98 1    
    72   36   99 1    
    73   36  100 1    
    74   37   38 am   BACKBONE|DICT|INTERRES
    75   37  101 1    
    76   38   39 2    
    77   38   40 1    
    78   40   41 1    
    79   40   42 1    
    80   40  102 1    
    81   41  103 1    
    82   41  104 1    
    83   41  105 1    
    84   42   43 am   BACKBONE|DICT|INTERRES
    85   42  106 1    
    86   43   44 2    
    87   43   45 1    
    88   45   46 1    
    89   45   49 1    
    90   45  107 1    
    91   46   47 1    
    92   46  108 1    
    93   46  109 1    
    94   47   48 1    
    95   48  110 1    
    96   48  111 1    
    97   49   50 am   BACKBONE|DICT|INTERRES
    98   49  112 1    
    99   50   51 2    
   100   50   52 1    
   101   52   53 1    
   102   52   54 1    
   103   52  113 1    
   104   53  114 1    
   105   53  115 1    
   106   53  116 1    
   107   54   55 am   BACKBONE|DICT|INTERRES
   108   54  117 1    
   109   55   56 2    
   110   55   57 1    
   111   57   58 1    
   112   57   59 1    
   113   57  118 1    
   114   58  119 1    
   115   58  120 1    
   116   58  121 1    
   117   59   60 am   BACKBONE|DICT|INTERRES
   118   59  122 1    
   119   60   61 2    
   120   60   62 1    
   121   62   63 1    
   122   62   64 1    
   123   62  123 1    
   124   63  124 1    
   125   63  125 1    
   126   63  126 1    
   127   64   65 am   BACKBONE|DICT|INTERRES
   128   64  127 1    
   129   65   66 2    
@<TRIPOS>SUBSTRUCTURE
     1 UNK         1 GROUP             0       ****    0 ROOT    
