@<TRIPOS>MOLECULE
3R135
127   129    1
SMALL
USER_CHARGES


@<TRIPOS>ATOM
      1 CA        -81.5092   24.7430  -72.5295 C.3       0 UNK        -0.1998 
      2 C         -81.6968   25.7365  -73.6650 C.2       0 UNK         0.4909 
      3 O         -82.8316   26.0750  -74.0014 O.2       0 UNK        -0.5240 
      4 N         -80.5894   26.1923  -74.2592 N.am      1 UNK        -0.4739 
      5 CA        -80.5493   27.1633  -75.3575 C.3       1 UNK         0.0864 
      6 C6        -80.0044   28.5440  -74.9135 C.3       11 UNK        -0.0881 
      7 S7        -81.0564   29.3666  -73.6753 S.3       11 UNK        -0.2682 
      8 C8        -79.9323   30.6724  -73.0704 C.3       11 UNK         0.0289 
      9 C9        -78.7330   30.1619  -72.2713 C.ar      11 UNK        -0.0687 
     10 C10       -78.8442   29.0648  -71.4088 C.ar      11 UNK        -0.0823 
     11 C11       -77.7511   28.6354  -70.6511 C.ar      11 UNK        -0.0830 
     12 C12       -76.5441   29.3377  -70.7310 C.ar      11 UNK        -0.1021 
     13 C13       -76.4068   30.4185  -71.6079 C.ar      11 UNK        -0.0753 
     14 C14       -77.5055   30.8258  -72.3717 C.ar      11 UNK        -0.0933 
     15 C15       -75.0777   31.1546  -71.7264 C.3       11 UNK         0.0166 
     16 S16       -74.0637   30.5193  -73.1029 S.3       11 UNK        -0.2615 
     17 C17       -73.5267   28.9028  -72.4515 C.3       11 UNK        -0.0865 
     18 CA        -72.0280   28.6160  -72.7113 C.3       10 UNK         0.0862 
     19 C         -71.5348   27.4517  -71.8068 C.2       10 UNK         0.5551 
     20 N         -71.7222   26.1994  -72.2030 N.am      10 UNK        -0.7319 
     21 O         -70.9766   27.6910  -70.7390 O.2       10 UNK        -0.5018 
     22 N         -71.7590   28.3951  -74.1413 N.am      10 UNK        -0.4509 
     23 C         -70.5315   28.3166  -74.6760 C.2       10 UNK         0.4899 
     24 O         -69.4920   28.5187  -74.0475 O.2       10 UNK        -0.4839 
     25 CA        -70.4404   27.9537  -76.1659 C.3       9 UNK         0.0222 
     26 CB        -70.5591   26.4319  -76.3476 C.3       9 UNK        -0.1966 
     27 N         -71.4764   28.6224  -76.9526 N.am      9 UNK        -0.4218 
     28 C         -71.3740   29.8633  -77.4547 C.2       9 UNK         0.5020 
     29 O         -70.3648   30.5630  -77.3648 O.2       9 UNK        -0.5274 
     30 CA        -72.6191   30.4270  -78.1531 C.3       8 UNK         0.0270 
     31 CB        -72.7292   29.8775  -79.5897 C.3       8 UNK        -0.1976 
     32 N         -73.7922   30.0894  -77.3540 N.am      8 UNK        -0.4313 
     33 C         -75.0622   30.4557  -77.5192 C.2       8 UNK         0.5041 
     34 O         -75.4656   31.1718  -78.4376 O.2       8 UNK        -0.5577 
     35 CA        -76.0369   29.9067  -76.4558 C.3       7 UNK         0.0284 
     36 CB        -77.4220   30.5711  -76.5258 C.3       7 UNK        -0.1958 
     37 N         -76.1846   28.4430  -76.4911 N.am      7 UNK        -0.4454 
     38 C         -75.2364   27.5460  -76.1817 C.2       7 UNK         0.5089 
     39 O         -74.0949   27.8492  -75.8205 O.2       7 UNK        -0.5125 
     40 CA        -75.6329   26.0640  -76.2851 C.3       6 UNK         0.0408 
     41 CB        -74.5726   25.2264  -77.0263 C.3       6 UNK        -0.1791 
     42 N         -75.9418   25.5123  -74.9633 N.am      6 UNK        -0.4762 
     43 C         -75.1209   25.3568  -73.9146 C.2       6 UNK         0.5007 
     44 O         -73.9009   25.5191  -73.9549 O.2       6 UNK        -0.5032 
     45 CA        -75.7742   24.9691  -72.5720 C.3       5 UNK         0.0783 
     46 C46       -76.5349   26.1782  -71.9636 C.3       11 UNK        -0.0857 
     47 S47       -76.6652   26.0849  -70.1489 S.3       11 UNK        -0.2512 
     48 C48       -77.8809   27.3981  -69.7661 C.3       11 UNK         0.0225 
     49 N         -76.5666   23.7323  -72.6528 N.am      5 UNK        -0.4615 
     50 C         -77.7248   23.5465  -73.2959 C.2       4 UNK         0.5053 
     51 O         -78.3375   24.4401  -73.8925 O.2       4 UNK        -0.5105 
     52 CA        -78.2885   22.1217  -73.2889 C.3       4 UNK         0.0263 
     53 CB        -78.9818   21.7869  -71.9567 C.3       4 UNK        -0.1981 
     54 N         -79.2382   22.0333  -74.3890 N.am      4 UNK        -0.4224 
     55 C         -79.5411   20.9444  -75.1013 C.2       3 UNK         0.4895 
     56 O         -79.1385   19.8119  -74.8329 O.2       3 UNK        -0.5091 
     57 CA        -80.4399   21.1583  -76.3349 C.3       3 UNK         0.0250 
     58 CB        -81.9006   20.8183  -75.9957 C.3       3 UNK        -0.1996 
     59 N         -80.3774   22.5217  -76.8798 N.am      3 UNK        -0.4254 
     60 C         -79.3055   23.0523  -77.4919 C.2       2 UNK         0.5004 
     61 O         -78.2625   22.4336  -77.7017 O.2       2 UNK        -0.5226 
     62 CA        -79.3984   24.5253  -77.9111 C.3       2 UNK         0.0269 
     63 CB        -80.1069   24.6758  -79.2680 C.3       2 UNK        -0.1926 
     64 N         -80.0851   25.3233  -76.8923 N.am      2 UNK        -0.4687 
     65 C         -79.7288   26.5555  -76.5097 C.2       1 UNK         0.5165 
     66 O         -78.7878   27.1823  -77.0032 O.2       1 UNK        -0.5079 
     67 H67       -82.2000   24.9642  -71.7164 H         1 UNK         0.0900 
     68 H68       -80.4973   24.7838  -72.1268 H         1 UNK         0.0900 
     69 H69       -81.7045   23.7297  -72.8790 H         1 UNK         0.0900 
     70 H70       -79.6903   25.7951  -73.9972 H         1 UNK         0.2959 
     71 H71       -81.5522   27.3181  -75.7618 H         1 UNK         0.1079 
     72 H72       -78.9920   28.4419  -74.5176 H         1 UNK         0.0837 
     73 H73       -79.9458   29.2136  -75.7727 H         1 UNK         0.0837 
     74 H74       -79.6000   31.2653  -73.9238 H         1 UNK         0.0685 
     75 H75       -80.5031   31.3475  -72.4318 H         1 UNK         0.0685 
     76 H76       -79.7856   28.5392  -71.3293 H         1 UNK         0.1434 
     77 H77       -75.7031   29.0157  -70.1330 H         1 UNK         0.1329 
     78 H78       -77.4039   31.6706  -73.0393 H         1 UNK         0.1335 
     79 H79       -75.2633   32.2168  -71.8928 H         1 UNK         0.0680 
     80 H80       -74.5163   31.0904  -70.7930 H         1 UNK         0.0680 
     81 H81       -74.1416   28.1282  -72.9084 H         1 UNK         0.1032 
     82 H82       -73.7351   28.8699  -71.3813 H         1 UNK         0.1032 
     83 H83       -71.4645   29.5020  -72.4110 H         1 UNK         0.0461 
     84 H84       -71.3940   25.4439  -71.6239 H         1 UNK         0.3453 
     85 H85       -72.2723   25.9995  -73.0330 H         1 UNK         0.3453 
     86 H86       -72.5674   28.1759  -74.7158 H         1 UNK         0.2984 
     87 H87       -69.4586   28.2605  -76.5332 H         1 UNK         0.0554 
     88 H88       -70.4943   26.1481  -77.3981 H         1 UNK         0.0847 
     89 H89       -71.5001   26.0496  -75.9510 H         1 UNK         0.0847 
     90 H90       -69.7549   25.9153  -75.8220 H         1 UNK         0.0847 
     91 H91       -72.3512   28.1227  -77.0500 H         1 UNK         0.3141 
     92 H92       -72.5304   31.5145  -78.1892 H         1 UNK         0.0743 
     93 H93       -71.8143   30.0705  -80.1516 H         1 UNK         0.0784 
     94 H94       -72.8985   28.8002  -79.5993 H         1 UNK         0.0784 
     95 H95       -73.5447   30.3482  -80.1384 H         1 UNK         0.0784 
     96 H96       -73.6214   29.4712  -76.5643 H         1 UNK         0.3213 
     97 H97       -75.6139   30.1710  -75.4862 H         1 UNK         0.0855 
     98 H98       -77.3388   31.6552  -76.6151 H         1 UNK         0.0814 
     99 H99       -77.9836   30.3794  -75.6145 H         1 UNK         0.0814 
    100 H100      -78.0036   30.2136  -77.3762 H         1 UNK         0.0814 
    101 H101      -77.0949   28.0897  -76.7777 H         1 UNK         0.3105 
    102 H102      -76.5480   25.9943  -76.8699 H         1 UNK         0.0547 
    103 H103      -74.4009   25.6189  -78.0290 H         1 UNK         0.0837 
    104 H104      -73.6122   25.2243  -76.5135 H         1 UNK         0.0837 
    105 H105      -74.8945   24.1907  -77.1336 H         1 UNK         0.0837 
    106 H106      -76.9234   25.3138  -74.7881 H         1 UNK         0.3020 
    107 H107      -74.9387   24.7390  -71.9075 H         1 UNK         0.1245 
    108 H108      -77.5301   26.2963  -72.3922 H         1 UNK         0.0781 
    109 H109      -76.0127   27.1067  -72.1897 H         1 UNK         0.0781 
    110 H110      -77.7676   27.6921  -68.7218 H         1 UNK         0.0836 
    111 H111      -78.8800   26.9684  -69.8543 H         1 UNK         0.0836 
    112 H112      -76.1430   22.9319  -72.2046 H         1 UNK         0.3022 
    113 H113      -77.4665   21.4243  -73.4643 H         1 UNK         0.0747 
    114 H114      -79.3772   20.7711  -71.9626 H         1 UNK         0.0793 
    115 H115      -78.2838   21.8565  -71.1216 H         1 UNK         0.0793 
    116 H116      -79.8092   22.4638  -71.7471 H         1 UNK         0.0793 
    117 H117      -79.5563   22.9361  -74.7161 H         1 UNK         0.3047 
    118 H118      -80.0978   20.4688  -77.1099 H         1 UNK         0.0822 
    119 H119      -82.5395   20.8848  -76.8766 H         1 UNK         0.0807 
    120 H120      -82.3055   21.4854  -75.2336 H         1 UNK         0.0807 
    121 H121      -81.9851   19.7996  -75.6141 H         1 UNK         0.0807 
    122 H122      -81.2206   23.0699  -76.8050 H         1 UNK         0.2946 
    123 H123      -78.3715   24.8808  -78.0222 H         1 UNK         0.1144 
    124 H124      -80.0906   25.7116  -79.6077 H         1 UNK         0.0793 
    125 H125      -81.1483   24.3559  -79.2200 H         1 UNK         0.0793 
    126 H126      -79.6142   24.0763  -80.0348 H         1 UNK         0.0793 
    127 H127      -80.8497   24.8866  -76.4001 H         1 UNK         0.2896 
@<TRIPOS>BOND
     1    1    2 1    
     2    1   67 1    
     3    1   68 1    
     4    1   69 1    
     5    2    3 2    
     6    2    4 am   BACKBONE|DICT|INTERRES
     7    4    5 1    
     8    4   70 1    
     9    5    6 1    
    10    5   65 1    
    11    5   71 1    
    12    6    7 1    
    13    6   72 1    
    14    6   73 1    
    15    7    8 1    
    16    8    9 1    
    17    8   74 1    
    18    8   75 1    
    19    9   10 ar   
    20    9   14 ar   
    21   10   11 ar   
    22   10   76 1    
    23   11   12 ar   
    24   11   48 1    
    25   12   13 ar   
    26   12   77 1    
    27   13   14 ar   
    28   13   15 1    
    29   14   78 1    
    30   15   16 1    
    31   15   79 1    
    32   15   80 1    
    33   16   17 1    
    34   17   18 1    
    35   17   81 1    
    36   17   82 1    
    37   18   19 1    
    38   18   22 1    
    39   18   83 1    
    40   19   20 am   BACKBONE|DICT|INTERRES
    41   19   21 2    
    42   20   84 1    
    43   20   85 1    
    44   22   23 am   BACKBONE|DICT|INTERRES
    45   22   86 1    
    46   23   24 2    
    47   23   25 1    
    48   25   26 1    
    49   25   27 1    
    50   25   87 1    
    51   26   88 1    
    52   26   89 1    
    53   26   90 1    
    54   27   28 am   BACKBONE|DICT|INTERRES
    55   27   91 1    
    56   28   29 2    
    57   28   30 1    
    58   30   31 1    
    59   30   32 1    
    60   30   92 1    
    61   31   93 1    
    62   31   94 1    
    63   31   95 1    
    64   32   33 am   BACKBONE|DICT|INTERRES
    65   32   96 1    
    66   33   34 2    
    67   33   35 1    
    68   35   36 1    
    69   35   37 1    
    70   35   97 1    
    71   36   98 1    
    72   36   99 1    
    73   36  100 1    
    74   37   38 am   BACKBONE|DICT|INTERRES
    75   37  101 1    
    76   38   39 2    
    77   38   40 1    
    78   40   41 1    
    79   40   42 1    
    80   40  102 1    
    81   41  103 1    
    82   41  104 1    
    83   41  105 1    
    84   42   43 am   BACKBONE|DICT|INTERRES
    85   42  106 1    
    86   43   44 2    
    87   43   45 1    
    88   45   46 1    
    89   45   49 1    
    90   45  107 1    
    91   46   47 1    
    92   46  108 1    
    93   46  109 1    
    94   47   48 1    
    95   48  110 1    
    96   48  111 1    
    97   49   50 am   BACKBONE|DICT|INTERRES
    98   49  112 1    
    99   50   51 2    
   100   50   52 1    
   101   52   53 1    
   102   52   54 1    
   103   52  113 1    
   104   53  114 1    
   105   53  115 1    
   106   53  116 1    
   107   54   55 am   BACKBONE|DICT|INTERRES
   108   54  117 1    
   109   55   56 2    
   110   55   57 1    
   111   57   58 1    
   112   57   59 1    
   113   57  118 1    
   114   58  119 1    
   115   58  120 1    
   116   58  121 1    
   117   59   60 am   BACKBONE|DICT|INTERRES
   118   59  122 1    
   119   60   61 2    
   120   60   62 1    
   121   62   63 1    
   122   62   64 1    
   123   62  123 1    
   124   63  124 1    
   125   63  125 1    
   126   63  126 1    
   127   64   65 am   BACKBONE|DICT|INTERRES
   128   64  127 1    
   129   65   66 2    
@<TRIPOS>SUBSTRUCTURE
     1 UNK         1 GROUP             0       ****    0 ROOT    
