@<TRIPOS>MOLECULE
3R135
127   129    1
SMALL
USER_CHARGES


@<TRIPOS>ATOM
      1 CA        -80.4752   30.6967  -76.5908 C.3       0 UNK        -0.1998 
      2 C         -79.7613   29.6331  -75.7711 C.2       0 UNK         0.4909 
      3 O         -78.5335   29.5951  -75.7563 O.2       0 UNK        -0.5240 
      4 N         -80.5204   28.7645  -75.0919 N.am      1 UNK        -0.4739 
      5 CA        -79.9948   27.6830  -74.2438 C.3       1 UNK         0.0864 
      6 C6        -81.0399   27.2126  -73.2000 C.3       11 UNK        -0.0881 
      7 S7        -81.6889   28.6012  -72.2025 S.3       11 UNK        -0.2682 
      8 C8        -80.7492   28.4569  -70.6493 C.3       11 UNK         0.0289 
      9 C9        -79.2427   28.4528  -70.8713 C.ar      11 UNK        -0.0687 
     10 C10       -78.5088   27.2875  -70.6261 C.ar      11 UNK        -0.0823 
     11 C11       -77.1251   27.2621  -70.8147 C.ar      11 UNK        -0.0830 
     12 C12       -76.4799   28.4317  -71.2251 C.ar      11 UNK        -0.1021 
     13 C13       -77.1998   29.5880  -71.5268 C.ar      11 UNK        -0.0753 
     14 C14       -78.5843   29.6009  -71.3293 C.ar      11 UNK        -0.0933 
     15 C15       -76.4630   30.8041  -72.0731 C.3       11 UNK         0.0166 
     16 S16       -75.4643   30.3744  -73.5452 S.3       11 UNK        -0.2615 
     17 C17       -73.9417   31.3477  -73.2699 C.3       11 UNK        -0.0865 
     18 CA        -72.7700   30.5487  -72.6308 C.3       10 UNK         0.0862 
     19 C         -72.9742   30.3026  -71.1046 C.2       10 UNK         0.5551 
     20 N         -72.9430   29.0702  -70.6130 N.am      10 UNK        -0.7319 
     21 O         -73.1481   31.2563  -70.3500 O.2       10 UNK        -0.5018 
     22 N         -72.3981   29.3705  -73.4364 N.am      10 UNK        -0.4509 
     23 C         -71.2299   28.7175  -73.3495 C.2       10 UNK         0.4899 
     24 O         -70.3300   29.0265  -72.5683 O.2       10 UNK        -0.4839 
     25 CA        -71.0081   27.5252  -74.2981 C.3       9 UNK         0.0222 
     26 CB        -71.3313   26.1948  -73.6004 C.3       9 UNK        -0.1966 
     27 N         -71.7525   27.6235  -75.5589 N.am      9 UNK        -0.4218 
     28 C         -71.4179   28.4713  -76.5454 C.2       9 UNK         0.5020 
     29 O         -70.4901   29.2777  -76.4646 O.2       9 UNK        -0.5274 
     30 CA        -72.2285   28.4165  -77.8453 C.3       8 UNK         0.0270 
     31 CB        -71.7040   27.2971  -78.7610 C.3       8 UNK        -0.1976 
     32 N         -73.6542   28.2074  -77.5994 N.am      8 UNK        -0.4313 
     33 C         -74.6421   28.9471  -78.1242 C.2       8 UNK         0.5041 
     34 O         -74.4544   29.9578  -78.8047 O.2       8 UNK        -0.5577 
     35 CA        -76.0837   28.4658  -77.8530 C.3       7 UNK         0.0284 
     36 CB        -77.0944   28.9299  -78.9228 C.3       7 UNK        -0.1958 
     37 N         -76.1718   27.0161  -77.6432 N.am      7 UNK        -0.4454 
     38 C         -75.7975   26.0396  -78.4860 C.2       7 UNK         0.5089 
     39 O         -75.4856   26.2286  -79.6618 O.2       7 UNK        -0.5125 
     40 CA        -75.7269   24.6097  -77.9039 C.3       6 UNK         0.0408 
     41 CB        -74.4758   23.8587  -78.4056 C.3       6 UNK        -0.1791 
     42 N         -75.8061   24.5322  -76.4334 N.am      6 UNK        -0.4762 
     43 C         -74.9735   25.0910  -75.5377 C.2       6 UNK         0.5007 
     44 O         -74.0368   25.8317  -75.8568 O.2       6 UNK        -0.5032 
     45 CA        -75.2389   24.8134  -74.0439 C.3       5 UNK         0.0783 
     46 C46       -75.2359   26.1205  -73.2137 C.3       11 UNK        -0.0857 
     47 S47       -74.7718   25.8080  -71.4738 S.3       11 UNK        -0.2512 
     48 C48       -76.3648   25.9554  -70.5880 C.3       11 UNK         0.0225 
     49 N         -76.4954   24.0791  -73.8333 N.am      5 UNK        -0.4615 
     50 C         -76.5741   22.8346  -73.3477 C.2       4 UNK         0.5053 
     51 O         -75.5910   22.1260  -73.1307 O.2       4 UNK        -0.5105 
     52 CA        -77.9695   22.2726  -73.0372 C.3       4 UNK         0.0263 
     53 CB        -78.4387   22.6981  -71.6355 C.3       4 UNK        -0.1981 
     54 N         -78.9882   22.6532  -74.0208 N.am      4 UNK        -0.4224 
     55 C         -79.8715   21.7927  -74.5518 C.2       3 UNK         0.4895 
     56 O         -79.8719   20.5830  -74.3181 O.2       3 UNK        -0.5091 
     57 CA        -80.9672   22.3532  -75.4802 C.3       3 UNK         0.0250 
     58 CB        -82.3116   22.4212  -74.7362 C.3       3 UNK        -0.1996 
     59 N         -80.6712   23.6728  -76.0378 N.am      3 UNK        -0.4254 
     60 C         -79.7114   23.9290  -76.9348 C.2       2 UNK         0.5004 
     61 O         -78.9787   23.0684  -77.4210 O.2       2 UNK        -0.5226 
     62 CA        -79.5069   25.3993  -77.3334 C.3       2 UNK         0.0269 
     63 CB        -80.2021   25.7024  -78.6695 C.3       2 UNK        -0.1926 
     64 N         -79.9312   26.3841  -76.3324 N.am      2 UNK        -0.4687 
     65 C         -79.4751   26.4895  -75.0738 C.2       1 UNK         0.5165 
     66 O         -78.6895   25.6841  -74.5670 O.2       1 UNK        -0.5079 
     67 H67       -80.1898   31.6895  -76.2441 H         1 UNK         0.0900 
     68 H68       -81.5591   30.6097  -76.5173 H         1 UNK         0.0900 
     69 H69       -80.1969   30.6092  -77.6407 H         1 UNK         0.0900 
     70 H70       -81.5260   28.8614  -75.1048 H         1 UNK         0.2959 
     71 H71       -79.1284   28.0707  -73.7034 H         1 UNK         0.1079 
     72 H72       -81.8876   26.7351  -73.6953 H         1 UNK         0.0837 
     73 H73       -80.6145   26.4566  -72.5371 H         1 UNK         0.0837 
     74 H74       -81.0125   29.2926  -69.9995 H         1 UNK         0.0685 
     75 H75       -81.0685   27.5533  -70.1276 H         1 UNK         0.0685 
     76 H76       -79.0183   26.3929  -70.2945 H         1 UNK         0.1434 
     77 H77       -75.4108   28.4383  -71.3675 H         1 UNK         0.1329 
     78 H78       -79.1543   30.4940  -71.5460 H         1 UNK         0.1335 
     79 H79       -77.1624   31.5967  -72.3428 H         1 UNK         0.0680 
     80 H80       -75.8283   31.2035  -71.2819 H         1 UNK         0.0680 
     81 H81       -74.1717   32.2412  -72.6863 H         1 UNK         0.1032 
     82 H82       -73.6213   31.7241  -74.2426 H         1 UNK         0.1032 
     83 H83       -71.9049   31.2135  -72.6744 H         1 UNK         0.0461 
     84 H84       -73.0666   28.9309  -69.6231 H         1 UNK         0.3453 
     85 H85       -72.7854   28.2825  -71.2193 H         1 UNK         0.3453 
     86 H86       -73.0916   29.0496  -74.0950 H         1 UNK         0.2984 
     87 H87       -69.9437   27.5083  -74.5432 H         1 UNK         0.0554 
     88 H88       -72.3773   26.1277  -73.3122 H         1 UNK         0.0847 
     89 H89       -70.7385   26.0777  -72.6921 H         1 UNK         0.0847 
     90 H90       -71.1068   25.3438  -74.2437 H         1 UNK         0.0847 
     91 H91       -72.5129   26.9630  -75.6942 H         1 UNK         0.3141 
     92 H92       -72.0709   29.3698  -78.3543 H         1 UNK         0.0743 
     93 H93       -71.8274   26.3125  -78.3081 H         1 UNK         0.0784 
     94 H94       -72.2288   27.2917  -79.7168 H         1 UNK         0.0784 
     95 H95       -70.6424   27.4301  -78.9738 H         1 UNK         0.0784 
     96 H96       -73.9068   27.3930  -77.0483 H         1 UNK         0.3213 
     97 H97       -76.3644   28.9267  -76.9061 H         1 UNK         0.0855 
     98 H98       -77.1278   30.0184  -78.9811 H         1 UNK         0.0814 
     99 H99       -78.1025   28.5907  -78.6850 H         1 UNK         0.0814 
    100 H100      -76.8363   28.5574  -79.9143 H         1 UNK         0.0814 
    101 H101      -76.4028   26.7338  -76.7016 H         1 UNK         0.3105 
    102 H102      -76.6000   24.0823  -78.2887 H         1 UNK         0.0547 
    103 H103      -74.4710   23.7836  -79.4937 H         1 UNK         0.0837 
    104 H104      -73.5548   24.3631  -78.1124 H         1 UNK         0.0837 
    105 H105      -74.4402   22.8419  -78.0149 H         1 UNK         0.0837 
    106 H106      -76.5432   23.9434  -76.0698 H         1 UNK         0.3020 
    107 H107      -74.3860   24.2078  -73.7289 H         1 UNK         0.1245 
    108 H108      -76.2071   26.6125  -73.2808 H         1 UNK         0.0781 
    109 H109      -74.5229   26.8544  -73.5912 H         1 UNK         0.0781 
    110 H110      -76.1792   25.8413  -69.5194 H         1 UNK         0.0836 
    111 H111      -76.9872   25.1132  -70.8852 H         1 UNK         0.0836 
    112 H112      -77.3434   24.6202  -73.9887 H         1 UNK         0.3022 
    113 H113      -77.8490   21.1871  -73.0267 H         1 UNK         0.0747 
    114 H114      -79.3102   22.1219  -71.3245 H         1 UNK         0.0793 
    115 H115      -77.6603   22.5346  -70.8886 H         1 UNK         0.0793 
    116 H116      -78.7142   23.7523  -71.6064 H         1 UNK         0.0793 
    117 H117      -79.0474   23.6326  -74.2730 H         1 UNK         0.3047 
    118 H118      -81.0718   21.6538  -76.3127 H         1 UNK         0.0822 
    119 H119      -83.1182   22.7344  -75.3995 H         1 UNK         0.0807 
    120 H120      -82.2744   23.1178  -73.8975 H         1 UNK         0.0807 
    121 H121      -82.5870   21.4444  -74.3357 H         1 UNK         0.0807 
    122 H122      -81.2266   24.4462  -75.7028 H         1 UNK         0.2946 
    123 H123      -78.4378   25.5329  -77.4737 H         1 UNK         0.1144 
    124 H124      -79.8845   25.0022  -79.4437 H         1 UNK         0.0793 
    125 H125      -79.9598   26.7041  -79.0252 H         1 UNK         0.0793 
    126 H126      -81.2870   25.6269  -78.5863 H         1 UNK         0.0793 
    127 H127      -80.5765   27.0941  -76.6475 H         1 UNK         0.2896 
@<TRIPOS>BOND
     1    1    2 1    
     2    1   67 1    
     3    1   68 1    
     4    1   69 1    
     5    2    3 2    
     6    2    4 am   BACKBONE|DICT|INTERRES
     7    4    5 1    
     8    4   70 1    
     9    5    6 1    
    10    5   65 1    
    11    5   71 1    
    12    6    7 1    
    13    6   72 1    
    14    6   73 1    
    15    7    8 1    
    16    8    9 1    
    17    8   74 1    
    18    8   75 1    
    19    9   10 ar   
    20    9   14 ar   
    21   10   11 ar   
    22   10   76 1    
    23   11   12 ar   
    24   11   48 1    
    25   12   13 ar   
    26   12   77 1    
    27   13   14 ar   
    28   13   15 1    
    29   14   78 1    
    30   15   16 1    
    31   15   79 1    
    32   15   80 1    
    33   16   17 1    
    34   17   18 1    
    35   17   81 1    
    36   17   82 1    
    37   18   19 1    
    38   18   22 1    
    39   18   83 1    
    40   19   20 am   BACKBONE|DICT|INTERRES
    41   19   21 2    
    42   20   84 1    
    43   20   85 1    
    44   22   23 am   BACKBONE|DICT|INTERRES
    45   22   86 1    
    46   23   24 2    
    47   23   25 1    
    48   25   26 1    
    49   25   27 1    
    50   25   87 1    
    51   26   88 1    
    52   26   89 1    
    53   26   90 1    
    54   27   28 am   BACKBONE|DICT|INTERRES
    55   27   91 1    
    56   28   29 2    
    57   28   30 1    
    58   30   31 1    
    59   30   32 1    
    60   30   92 1    
    61   31   93 1    
    62   31   94 1    
    63   31   95 1    
    64   32   33 am   BACKBONE|DICT|INTERRES
    65   32   96 1    
    66   33   34 2    
    67   33   35 1    
    68   35   36 1    
    69   35   37 1    
    70   35   97 1    
    71   36   98 1    
    72   36   99 1    
    73   36  100 1    
    74   37   38 am   BACKBONE|DICT|INTERRES
    75   37  101 1    
    76   38   39 2    
    77   38   40 1    
    78   40   41 1    
    79   40   42 1    
    80   40  102 1    
    81   41  103 1    
    82   41  104 1    
    83   41  105 1    
    84   42   43 am   BACKBONE|DICT|INTERRES
    85   42  106 1    
    86   43   44 2    
    87   43   45 1    
    88   45   46 1    
    89   45   49 1    
    90   45  107 1    
    91   46   47 1    
    92   46  108 1    
    93   46  109 1    
    94   47   48 1    
    95   48  110 1    
    96   48  111 1    
    97   49   50 am   BACKBONE|DICT|INTERRES
    98   49  112 1    
    99   50   51 2    
   100   50   52 1    
   101   52   53 1    
   102   52   54 1    
   103   52  113 1    
   104   53  114 1    
   105   53  115 1    
   106   53  116 1    
   107   54   55 am   BACKBONE|DICT|INTERRES
   108   54  117 1    
   109   55   56 2    
   110   55   57 1    
   111   57   58 1    
   112   57   59 1    
   113   57  118 1    
   114   58  119 1    
   115   58  120 1    
   116   58  121 1    
   117   59   60 am   BACKBONE|DICT|INTERRES
   118   59  122 1    
   119   60   61 2    
   120   60   62 1    
   121   62   63 1    
   122   62   64 1    
   123   62  123 1    
   124   63  124 1    
   125   63  125 1    
   126   63  126 1    
   127   64   65 am   BACKBONE|DICT|INTERRES
   128   64  127 1    
   129   65   66 2    
@<TRIPOS>SUBSTRUCTURE
     1 UNK         1 GROUP             0       ****    0 ROOT    
