@<TRIPOS>MOLECULE
3R135
127   129    1
SMALL
USER_CHARGES


@<TRIPOS>ATOM
      1 CA        -83.0763   27.5371  -72.9337 C.3       0 UNK        -0.1998 
      2 C         -83.5782   26.1266  -72.6347 C.2       0 UNK         0.4909 
      3 O         -84.7854   25.9323  -72.5037 O.2       0 UNK        -0.5240 
      4 N         -82.7105   25.1144  -72.5198 N.am      1 UNK        -0.4739 
      5 CA        -81.2563   25.1459  -72.6758 C.3       1 UNK         0.0864 
      6 C6        -80.5310   25.7756  -71.4559 C.3       11 UNK        -0.0881 
      7 S7        -78.9917   26.6216  -71.9480 S.3       11 UNK        -0.2682 
      8 C8        -79.4548   28.3664  -71.7244 C.3       11 UNK         0.0289 
      9 C9        -78.2538   29.2921  -71.8492 C.ar      11 UNK        -0.0687 
     10 C10       -78.1862   30.2413  -72.8754 C.ar      11 UNK        -0.0823 
     11 C11       -77.1091   31.1315  -72.9425 C.ar      11 UNK        -0.0830 
     12 C12       -76.1027   31.0700  -71.9757 C.ar      11 UNK        -0.1021 
     13 C13       -76.1368   30.0992  -70.9733 C.ar      11 UNK        -0.0753 
     14 C14       -77.2210   29.2203  -70.9087 C.ar      11 UNK        -0.0933 
     15 C15       -75.0067   29.9992  -69.9604 C.3       11 UNK         0.0166 
     16 S16       -73.5812   29.0867  -70.6366 S.3       11 UNK        -0.2615 
     17 C17       -72.6533   30.3980  -71.5119 C.3       11 UNK        -0.0865 
     18 CA        -72.7777   30.3394  -73.0647 C.3       10 UNK         0.0862 
     19 C         -72.1164   31.5639  -73.7665 C.2       10 UNK         0.5551 
     20 N         -71.5502   31.4165  -74.9584 N.am      10 UNK        -0.7319 
     21 O         -72.1378   32.6729  -73.2377 O.2       10 UNK        -0.5018 
     22 N         -72.4151   29.0380  -73.6468 N.am      10 UNK        -0.4509 
     23 C         -71.2350   28.4112  -73.5528 C.2       10 UNK         0.4899 
     24 O         -70.2664   28.8515  -72.9317 O.2       10 UNK        -0.4839 
     25 CA        -71.1155   27.0759  -74.3129 C.3       9 UNK         0.0222 
     26 CB        -69.9654   26.1820  -73.8018 C.3       9 UNK        -0.1966 
     27 N         -72.3852   26.3428  -74.3710 N.am      9 UNK        -0.4218 
     28 C         -73.0695   25.7877  -73.3575 C.2       9 UNK         0.5020 
     29 O         -72.6644   25.7367  -72.1958 O.2       9 UNK        -0.5274 
     30 CA        -74.4527   25.1898  -73.6879 C.3       8 UNK         0.0270 
     31 CB        -75.5693   26.0832  -73.1240 C.3       8 UNK        -0.1976 
     32 N         -74.6840   25.0016  -75.1226 N.am      8 UNK        -0.4313 
     33 C         -74.0793   24.0814  -75.8866 C.2       8 UNK         0.5041 
     34 O         -73.3268   23.2108  -75.4495 O.2       8 UNK        -0.5577 
     35 CA        -74.3220   24.1822  -77.4011 C.3       7 UNK         0.0284 
     36 CB        -75.5882   23.4095  -77.8005 C.3       7 UNK        -0.1958 
     37 N         -74.4197   25.5742  -77.8556 N.am      7 UNK        -0.4454 
     38 C         -73.3810   26.4198  -77.9291 C.2       7 UNK         0.5089 
     39 O         -72.2254   26.1093  -77.6435 O.2       7 UNK        -0.5125 
     40 CA        -73.6831   27.8655  -78.3615 C.3       6 UNK         0.0408 
     41 CB        -73.6839   27.9801  -79.8938 C.3       6 UNK        -0.1791 
     42 N         -74.9503   28.3749  -77.8315 N.am      6 UNK        -0.4762 
     43 C         -75.1961   28.6062  -76.5324 C.2       6 UNK         0.5007 
     44 O         -74.3687   28.4193  -75.6395 O.2       6 UNK        -0.5032 
     45 CA        -76.6320   29.0533  -76.1722 C.3       5 UNK         0.0783 
     46 C46       -76.8488   30.5728  -76.3891 C.3       11 UNK        -0.0857 
     47 S47       -75.8321   31.6599  -75.3337 S.3       11 UNK        -0.2512 
     48 C48       -77.0177   32.1700  -74.0486 C.3       11 UNK         0.0225 
     49 N         -77.6481   28.2942  -76.9158 N.am      5 UNK        -0.4615 
     50 C         -77.7834   26.9633  -76.9226 C.2       4 UNK         0.5053 
     51 O         -77.0774   26.1933  -76.2639 O.2       4 UNK        -0.5105 
     52 CA        -78.8425   26.3939  -77.8748 C.3       4 UNK         0.0263 
     53 CB        -78.3869   26.5226  -79.3421 C.3       4 UNK        -0.1981 
     54 N         -79.0321   24.9914  -77.5313 N.am      4 UNK        -0.4224 
     55 C         -80.0502   24.1962  -77.8834 C.2       3 UNK         0.4895 
     56 O         -80.9900   24.5480  -78.5960 O.2       3 UNK        -0.5091 
     57 CA        -80.0236   22.7752  -77.3035 C.3       3 UNK         0.0250 
     58 CB        -79.1695   21.8552  -78.2012 C.3       3 UNK        -0.1996 
     59 N         -79.5256   22.8452  -75.9275 N.am      3 UNK        -0.4254 
     60 C         -79.2760   21.8535  -75.0654 C.2       2 UNK         0.5004 
     61 O         -79.3896   20.6540  -75.3168 O.2       2 UNK        -0.5226 
     62 CA        -78.8396   22.3032  -73.6586 C.3       2 UNK         0.0269 
     63 CB        -77.3104   22.4602  -73.5990 C.3       2 UNK        -0.1926 
     64 N         -79.4686   23.5668  -73.2499 N.am      2 UNK        -0.4687 
     65 C         -80.7728   23.7136  -72.9768 C.2       1 UNK         0.5165 
     66 O         -81.5771   22.7767  -72.9676 O.2       1 UNK        -0.5079 
     67 H67       -82.3399   27.5494  -73.7352 H         1 UNK         0.0900 
     68 H68       -82.6393   27.9853  -72.0429 H         1 UNK         0.0900 
     69 H69       -83.9043   28.1720  -73.2482 H         1 UNK         0.0900 
     70 H70       -83.0619   24.1743  -72.3776 H         1 UNK         0.2959 
     71 H71       -81.0371   25.7230  -73.5758 H         1 UNK         0.1079 
     72 H72       -80.2966   25.0255  -70.6975 H         1 UNK         0.0837 
     73 H73       -81.1742   26.4919  -70.9449 H         1 UNK         0.0837 
     74 H74       -80.2231   28.6274  -72.4533 H         1 UNK         0.0685 
     75 H75       -79.8987   28.5033  -70.7372 H         1 UNK         0.0685 
     76 H76       -78.9756   30.2963  -73.6125 H         1 UNK         0.1434 
     77 H77       -75.2761   31.7653  -72.0214 H         1 UNK         0.1329 
     78 H78       -77.2643   28.4757  -70.1256 H         1 UNK         0.1335 
     79 H79       -75.3544   29.4782  -69.0671 H         1 UNK         0.0680 
     80 H80       -74.7039   30.9928  -69.6274 H         1 UNK         0.0680 
     81 H81       -72.9854   31.3685  -71.1411 H         1 UNK         0.1032 
     82 H82       -71.6062   30.3238  -71.2158 H         1 UNK         0.1032 
     83 H83       -73.8336   30.4394  -73.3067 H         1 UNK         0.0461 
     84 H84       -71.5465   30.5165  -75.4097 H         1 UNK         0.3453 
     85 H85       -71.1336   32.2144  -75.4113 H         1 UNK         0.3453 
     86 H86       -73.1330   28.6275  -74.2391 H         1 UNK         0.2984 
     87 H87       -70.8840   27.3416  -75.3453 H         1 UNK         0.0554 
     88 H88       -69.9138   25.2456  -74.3572 H         1 UNK         0.0847 
     89 H89       -70.0768   25.9410  -72.7444 H         1 UNK         0.0847 
     90 H90       -69.0026   26.6808  -73.9189 H         1 UNK         0.0847 
     91 H91       -72.8280   26.3303  -75.2800 H         1 UNK         0.3141 
     92 H92       -74.5141   24.2135  -73.2028 H         1 UNK         0.0743 
     93 H93       -76.5523   25.6642  -73.3351 H         1 UNK         0.0784 
     94 H94       -75.4835   26.1849  -72.0412 H         1 UNK         0.0784 
     95 H95       -75.5380   27.0887  -73.5448 H         1 UNK         0.0784 
     96 H96       -75.3528   25.6297  -75.5609 H         1 UNK         0.3213 
     97 H97       -73.4703   23.7207  -77.9060 H         1 UNK         0.0855 
     98 H98       -75.4898   22.3523  -77.5499 H         1 UNK         0.0814 
     99 H99       -75.7748   23.4722  -78.8726 H         1 UNK         0.0814 
    100 H100      -76.4688   23.7818  -77.2802 H         1 UNK         0.0814 
    101 H101      -75.3421   25.9268  -78.0619 H         1 UNK         0.3105 
    102 H102      -72.8818   28.4994  -77.9752 H         1 UNK         0.0547 
    103 H103      -72.7402   27.6257  -80.3112 H         1 UNK         0.0837 
    104 H104      -74.4815   27.3892  -80.3459 H         1 UNK         0.0837 
    105 H105      -73.8082   29.0144  -80.2147 H         1 UNK         0.0837 
    106 H106      -75.6875   28.5516  -78.4983 H         1 UNK         0.3020 
    107 H107      -76.7759   28.8310  -75.1121 H         1 UNK         0.1245 
    108 H108      -77.8986   30.8202  -76.2256 H         1 UNK         0.0781 
    109 H109      -76.6483   30.8393  -77.4286 H         1 UNK         0.0781 
    110 H110      -77.9967   32.3693  -74.4867 H         1 UNK         0.0836 
    111 H111      -76.6827   33.1174  -73.6237 H         1 UNK         0.0836 
    112 H112      -78.2724   28.8409  -77.4911 H         1 UNK         0.3022 
    113 H113      -79.7802   26.9319  -77.7213 H         1 UNK         0.0747 
    114 H114      -79.1364   26.1254  -80.0268 H         1 UNK         0.0793 
    115 H115      -78.2252   27.5645  -79.6201 H         1 UNK         0.0793 
    116 H116      -77.4556   25.9848  -79.5243 H         1 UNK         0.0793 
    117 H117      -78.2970   24.6343  -76.9342 H         1 UNK         0.3047 
    118 H118      -81.0483   22.3998  -77.2764 H         1 UNK         0.0822 
    119 H119      -78.1122   22.1128  -78.1597 H         1 UNK         0.0807 
    120 H120      -79.4821   21.9277  -79.2439 H         1 UNK         0.0807 
    121 H121      -79.2694   20.8081  -77.9172 H         1 UNK         0.0807 
    122 H122      -79.4495   23.7821  -75.5580 H         1 UNK         0.2946 
    123 H123      -79.1390   21.5241  -72.9535 H         1 UNK         0.1144 
    124 H124      -76.8116   21.5277  -73.8669 H         1 UNK         0.0793 
    125 H125      -76.9540   23.2277  -74.2873 H         1 UNK         0.0793 
    126 H126      -76.9764   22.7283  -72.5965 H         1 UNK         0.0793 
    127 H127      -78.8675   24.3772  -73.1739 H         1 UNK         0.2896 
@<TRIPOS>BOND
     1    1    2 1    
     2    1   67 1    
     3    1   68 1    
     4    1   69 1    
     5    2    3 2    
     6    2    4 am   BACKBONE|DICT|INTERRES
     7    4    5 1    
     8    4   70 1    
     9    5    6 1    
    10    5   65 1    
    11    5   71 1    
    12    6    7 1    
    13    6   72 1    
    14    6   73 1    
    15    7    8 1    
    16    8    9 1    
    17    8   74 1    
    18    8   75 1    
    19    9   10 ar   
    20    9   14 ar   
    21   10   11 ar   
    22   10   76 1    
    23   11   12 ar   
    24   11   48 1    
    25   12   13 ar   
    26   12   77 1    
    27   13   14 ar   
    28   13   15 1    
    29   14   78 1    
    30   15   16 1    
    31   15   79 1    
    32   15   80 1    
    33   16   17 1    
    34   17   18 1    
    35   17   81 1    
    36   17   82 1    
    37   18   19 1    
    38   18   22 1    
    39   18   83 1    
    40   19   20 am   BACKBONE|DICT|INTERRES
    41   19   21 2    
    42   20   84 1    
    43   20   85 1    
    44   22   23 am   BACKBONE|DICT|INTERRES
    45   22   86 1    
    46   23   24 2    
    47   23   25 1    
    48   25   26 1    
    49   25   27 1    
    50   25   87 1    
    51   26   88 1    
    52   26   89 1    
    53   26   90 1    
    54   27   28 am   BACKBONE|DICT|INTERRES
    55   27   91 1    
    56   28   29 2    
    57   28   30 1    
    58   30   31 1    
    59   30   32 1    
    60   30   92 1    
    61   31   93 1    
    62   31   94 1    
    63   31   95 1    
    64   32   33 am   BACKBONE|DICT|INTERRES
    65   32   96 1    
    66   33   34 2    
    67   33   35 1    
    68   35   36 1    
    69   35   37 1    
    70   35   97 1    
    71   36   98 1    
    72   36   99 1    
    73   36  100 1    
    74   37   38 am   BACKBONE|DICT|INTERRES
    75   37  101 1    
    76   38   39 2    
    77   38   40 1    
    78   40   41 1    
    79   40   42 1    
    80   40  102 1    
    81   41  103 1    
    82   41  104 1    
    83   41  105 1    
    84   42   43 am   BACKBONE|DICT|INTERRES
    85   42  106 1    
    86   43   44 2    
    87   43   45 1    
    88   45   46 1    
    89   45   49 1    
    90   45  107 1    
    91   46   47 1    
    92   46  108 1    
    93   46  109 1    
    94   47   48 1    
    95   48  110 1    
    96   48  111 1    
    97   49   50 am   BACKBONE|DICT|INTERRES
    98   49  112 1    
    99   50   51 2    
   100   50   52 1    
   101   52   53 1    
   102   52   54 1    
   103   52  113 1    
   104   53  114 1    
   105   53  115 1    
   106   53  116 1    
   107   54   55 am   BACKBONE|DICT|INTERRES
   108   54  117 1    
   109   55   56 2    
   110   55   57 1    
   111   57   58 1    
   112   57   59 1    
   113   57  118 1    
   114   58  119 1    
   115   58  120 1    
   116   58  121 1    
   117   59   60 am   BACKBONE|DICT|INTERRES
   118   59  122 1    
   119   60   61 2    
   120   60   62 1    
   121   62   63 1    
   122   62   64 1    
   123   62  123 1    
   124   63  124 1    
   125   63  125 1    
   126   63  126 1    
   127   64   65 am   BACKBONE|DICT|INTERRES
   128   64  127 1    
   129   65   66 2    
@<TRIPOS>SUBSTRUCTURE
     1 UNK         1 GROUP             0       ****    0 ROOT    
