@<TRIPOS>MOLECULE
3R135
127   129    1
SMALL
USER_CHARGES


@<TRIPOS>ATOM
      1 CA        -86.6754   25.7469  -72.7431 C.3       0 UNK        -0.1998 
      2 C         -85.3921   25.9522  -73.5338 C.2       0 UNK         0.4909 
      3 O         -85.4225   25.9328  -74.7646 O.2       0 UNK        -0.5240 
      4 N         -84.2657   26.1532  -72.8359 N.am      1 UNK        -0.4739 
      5 CA        -82.9341   26.3381  -73.4264 C.3       1 UNK         0.0864 
      6 C6        -81.9341   26.8722  -72.3698 C.3       11 UNK        -0.0881 
      7 S7        -80.3565   27.4372  -73.0861 S.3       11 UNK        -0.2682 
      8 C8        -79.6152   28.2531  -71.6409 C.3       11 UNK         0.0289 
      9 C9        -78.2525   28.8208  -71.9967 C.ar      11 UNK        -0.0687 
     10 C10       -78.1646   30.0086  -72.7257 C.ar      11 UNK        -0.0823 
     11 C11       -76.9206   30.5122  -73.1130 C.ar      11 UNK        -0.0830 
     12 C12       -75.7572   29.8276  -72.7502 C.ar      11 UNK        -0.1021 
     13 C13       -75.8320   28.6461  -72.0061 C.ar      11 UNK        -0.0753 
     14 C14       -77.0836   28.1487  -71.6296 C.ar      11 UNK        -0.0933 
     15 C15       -74.5739   27.8619  -71.6703 C.3       11 UNK         0.0166 
     16 S16       -73.7232   28.4519  -70.1757 S.3       11 UNK        -0.2615 
     17 C17       -72.8297   29.9492  -70.7364 C.3       11 UNK        -0.0865 
     18 CA        -71.5051   29.7125  -71.5185 C.3       10 UNK         0.0862 
     19 C         -70.4869   28.8146  -70.7513 C.2       10 UNK         0.5551 
     20 N         -70.0630   27.6740  -71.2849 N.am      10 UNK        -0.7319 
     21 O         -70.0620   29.1727  -69.6554 O.2       10 UNK        -0.5018 
     22 N         -71.7475   29.3254  -72.9187 N.am      10 UNK        -0.4509 
     23 C         -70.8675   29.4885  -73.9155 C.2       10 UNK         0.4899 
     24 O         -69.7944   30.0792  -73.7805 O.2       10 UNK        -0.4839 
     25 CA        -71.2466   28.9033  -75.2940 C.3       9 UNK         0.0222 
     26 CB        -70.0101   28.6380  -76.1782 C.3       9 UNK        -0.1966 
     27 N         -72.0962   27.7026  -75.2610 N.am      9 UNK        -0.4218 
     28 C         -71.8516   26.5481  -74.6196 C.2       9 UNK         0.5020 
     29 O         -70.9195   26.3881  -73.8299 O.2       9 UNK        -0.5274 
     30 CA        -72.7960   25.3651  -74.8973 C.3       8 UNK         0.0270 
     31 CB        -73.9548   25.3204  -73.8929 C.3       8 UNK        -0.1976 
     32 N         -73.3391   25.3431  -76.2561 N.am      8 UNK        -0.4313 
     33 C         -72.6421   24.9799  -77.3414 C.2       8 UNK         0.5041 
     34 O         -71.4446   24.6917  -77.3257 O.2       8 UNK        -0.5577 
     35 CA        -73.4153   24.9053  -78.6646 C.3       7 UNK         0.0284 
     36 CB        -74.3255   23.6656  -78.6930 C.3       7 UNK        -0.1958 
     37 N         -74.2185   26.1092  -78.8705 N.am      7 UNK        -0.4454 
     38 C         -73.8043   27.1832  -79.5557 C.2       7 UNK         0.5089 
     39 O         -72.7171   27.2518  -80.1304 O.2       7 UNK        -0.5125 
     40 CA        -74.7596   28.3902  -79.6303 C.3       6 UNK         0.0408 
     41 CB        -75.5272   28.3805  -80.9620 C.3       6 UNK        -0.1791 
     42 N         -75.7191   28.4756  -78.5254 N.am      6 UNK        -0.4762 
     43 C         -75.3900   28.6815  -77.2420 C.2       6 UNK         0.5007 
     44 O         -74.2310   28.7730  -76.8380 O.2       6 UNK        -0.5032 
     45 CA        -76.5545   28.7302  -76.2295 C.3       5 UNK         0.0783 
     46 C46       -77.2494   30.1184  -76.2384 C.3       11 UNK        -0.0857 
     47 S47       -76.1715   31.4602  -75.6182 S.3       11 UNK        -0.2512 
     48 C48       -76.8411   31.7781  -73.9536 C.3       11 UNK         0.0225 
     49 N         -77.5283   27.6383  -76.3939 N.am      5 UNK        -0.4615 
     50 C         -77.2448   26.3328  -76.5175 C.2       4 UNK         0.5053 
     51 O         -76.0985   25.8852  -76.5830 O.2       4 UNK        -0.5105 
     52 CA        -78.4477   25.3785  -76.6164 C.3       4 UNK         0.0263 
     53 CB        -78.2863   24.3709  -77.7724 C.3       4 UNK        -0.1981 
     54 N         -78.7254   24.6967  -75.3470 N.am      4 UNK        -0.4224 
     55 C         -77.9380   23.8489  -74.6610 C.2       3 UNK         0.4895 
     56 O         -76.8403   23.4441  -75.0410 O.2       3 UNK        -0.5091 
     57 CA        -78.4716   23.3433  -73.3074 C.3       3 UNK         0.0250 
     58 CB        -77.9716   24.2489  -72.1690 C.3       3 UNK        -0.1996 
     59 N         -79.9328   23.2561  -73.2517 N.am      3 UNK        -0.4254 
     60 C         -80.6805   22.3995  -73.9643 C.2       2 UNK         0.5004 
     61 O         -80.2116   21.5102  -74.6751 O.2       2 UNK        -0.5226 
     62 CA        -82.2116   22.5680  -73.8878 C.3       2 UNK         0.0269 
     63 CB        -82.8257   21.5036  -72.9639 C.3       2 UNK        -0.1926 
     64 N         -82.6553   23.8970  -73.4474 N.am      2 UNK        -0.4687 
     65 C         -82.4139   25.0476  -74.0952 C.2       1 UNK         0.5165 
     66 O         -81.7903   25.1146  -75.1557 O.2       1 UNK        -0.5079 
     67 H67       -86.5049   25.7949  -71.6677 H         1 UNK         0.0900 
     68 H68       -87.1068   24.7734  -72.9748 H         1 UNK         0.0900 
     69 H69       -87.4041   26.5136  -73.0051 H         1 UNK         0.0900 
     70 H70       -84.3091   26.1712  -71.8265 H         1 UNK         0.2959 
     71 H71       -83.0295   27.0896  -74.2139 H         1 UNK         0.1079 
     72 H72       -82.3788   27.7212  -71.8474 H         1 UNK         0.0837 
     73 H73       -81.7293   26.1209  -71.6045 H         1 UNK         0.0837 
     74 H74       -79.5326   27.5376  -70.8211 H         1 UNK         0.0685 
     75 H75       -80.2700   29.0540  -71.2943 H         1 UNK         0.0685 
     76 H76       -79.0712   30.5218  -73.0168 H         1 UNK         0.1434 
     77 H77       -74.7993   30.2032  -73.0807 H         1 UNK         0.1329 
     78 H78       -77.1488   27.2245  -71.0719 H         1 UNK         0.1335 
     79 H79       -74.8368   26.8166  -71.5031 H         1 UNK         0.0680 
     80 H80       -73.8943   27.8648  -72.5186 H         1 UNK         0.0680 
     81 H81       -73.4990   30.5945  -71.3026 H         1 UNK         0.1032 
     82 H82       -72.6011   30.5232  -69.8365 H         1 UNK         0.1032 
     83 H83       -71.0212   30.6904  -71.5643 H         1 UNK         0.0461 
     84 H84       -69.4003   27.1108  -70.7769 H         1 UNK         0.3453 
     85 H85       -70.3995   27.3600  -72.1898 H         1 UNK         0.3453 
     86 H86       -72.5894   28.8056  -73.1046 H         1 UNK         0.2984 
     87 H87       -71.8400   29.6745  -75.7867 H         1 UNK         0.0554 
     88 H88       -70.2991   28.2636  -77.1605 H         1 UNK         0.0847 
     89 H89       -69.3422   27.9050  -75.7240 H         1 UNK         0.0847 
     90 H90       -69.4343   29.5502  -76.3391 H         1 UNK         0.0847 
     91 H91       -72.9178   27.7615  -75.8584 H         1 UNK         0.3141 
     92 H92       -72.2091   24.4544  -74.7584 H         1 UNK         0.0743 
     93 H93       -74.6429   26.1550  -74.0303 H         1 UNK         0.0784 
     94 H94       -74.5295   24.4008  -74.0014 H         1 UNK         0.0784 
     95 H95       -73.5820   25.3437  -72.8686 H         1 UNK         0.0784 
     96 H96       -74.3357   25.5370  -76.3560 H         1 UNK         0.3213 
     97 H97       -72.6893   24.8014  -79.4743 H         1 UNK         0.0855 
     98 H98       -75.0543   23.6758  -77.8819 H         1 UNK         0.0814 
     99 H99       -73.7389   22.7519  -78.5890 H         1 UNK         0.0814 
    100 H100      -74.8716   23.5953  -79.6337 H         1 UNK         0.0814 
    101 H101      -75.0955   26.1621  -78.3649 H         1 UNK         0.3105 
    102 H102      -74.1434   29.2913  -79.6006 H         1 UNK         0.0547 
    103 H103      -76.1831   27.5129  -81.0441 H         1 UNK         0.0837 
    104 H104      -76.1368   29.2769  -81.0771 H         1 UNK         0.0837 
    105 H105      -74.8397   28.3493  -81.8085 H         1 UNK         0.0837 
    106 H106      -76.6967   28.3821  -78.7612 H         1 UNK         0.3020 
    107 H107      -76.1123   28.5772  -75.2434 H         1 UNK         0.1245 
    108 H108      -78.1559   30.0908  -75.6325 H         1 UNK         0.0781 
    109 H109      -77.5821   30.3797  -77.2448 H         1 UNK         0.0781 
    110 H110      -76.2051   32.5059  -73.4479 H         1 UNK         0.0836 
    111 H111      -77.8225   32.2451  -74.0512 H         1 UNK         0.0836 
    112 H112      -78.4995   27.9106  -76.3493 H         1 UNK         0.3022 
    113 H113      -79.3342   25.9765  -76.8344 H         1 UNK         0.0747 
    114 H114      -78.1224   24.8863  -78.7194 H         1 UNK         0.0793 
    115 H115      -79.1796   23.7567  -77.8858 H         1 UNK         0.0793 
    116 H116      -77.4408   23.7008  -77.6187 H         1 UNK         0.0793 
    117 H117      -79.6266   24.9226  -74.9422 H         1 UNK         0.3047 
    118 H118      -78.0697   22.3400  -73.1495 H         1 UNK         0.0822 
    119 H119      -76.8823   24.3125  -72.1719 H         1 UNK         0.0807 
    120 H120      -78.2703   23.8650  -71.1935 H         1 UNK         0.0807 
    121 H121      -78.3551   25.2651  -72.2638 H         1 UNK         0.0807 
    122 H122      -80.4091   23.9371  -72.6795 H         1 UNK         0.2946 
    123 H123      -82.5966   22.4107  -74.8980 H         1 UNK         0.1144 
    124 H124      -82.4942   21.6248  -71.9318 H         1 UNK         0.0793 
    125 H125      -82.5412   20.4992  -73.2814 H         1 UNK         0.0793 
    126 H126      -83.9150   21.5472  -72.9758 H         1 UNK         0.0793 
    127 H127      -83.1882   23.9363  -72.5904 H         1 UNK         0.2896 
@<TRIPOS>BOND
     1    1    2 1    
     2    1   67 1    
     3    1   68 1    
     4    1   69 1    
     5    2    3 2    
     6    2    4 am   BACKBONE|DICT|INTERRES
     7    4    5 1    
     8    4   70 1    
     9    5    6 1    
    10    5   65 1    
    11    5   71 1    
    12    6    7 1    
    13    6   72 1    
    14    6   73 1    
    15    7    8 1    
    16    8    9 1    
    17    8   74 1    
    18    8   75 1    
    19    9   10 ar   
    20    9   14 ar   
    21   10   11 ar   
    22   10   76 1    
    23   11   12 ar   
    24   11   48 1    
    25   12   13 ar   
    26   12   77 1    
    27   13   14 ar   
    28   13   15 1    
    29   14   78 1    
    30   15   16 1    
    31   15   79 1    
    32   15   80 1    
    33   16   17 1    
    34   17   18 1    
    35   17   81 1    
    36   17   82 1    
    37   18   19 1    
    38   18   22 1    
    39   18   83 1    
    40   19   20 am   BACKBONE|DICT|INTERRES
    41   19   21 2    
    42   20   84 1    
    43   20   85 1    
    44   22   23 am   BACKBONE|DICT|INTERRES
    45   22   86 1    
    46   23   24 2    
    47   23   25 1    
    48   25   26 1    
    49   25   27 1    
    50   25   87 1    
    51   26   88 1    
    52   26   89 1    
    53   26   90 1    
    54   27   28 am   BACKBONE|DICT|INTERRES
    55   27   91 1    
    56   28   29 2    
    57   28   30 1    
    58   30   31 1    
    59   30   32 1    
    60   30   92 1    
    61   31   93 1    
    62   31   94 1    
    63   31   95 1    
    64   32   33 am   BACKBONE|DICT|INTERRES
    65   32   96 1    
    66   33   34 2    
    67   33   35 1    
    68   35   36 1    
    69   35   37 1    
    70   35   97 1    
    71   36   98 1    
    72   36   99 1    
    73   36  100 1    
    74   37   38 am   BACKBONE|DICT|INTERRES
    75   37  101 1    
    76   38   39 2    
    77   38   40 1    
    78   40   41 1    
    79   40   42 1    
    80   40  102 1    
    81   41  103 1    
    82   41  104 1    
    83   41  105 1    
    84   42   43 am   BACKBONE|DICT|INTERRES
    85   42  106 1    
    86   43   44 2    
    87   43   45 1    
    88   45   46 1    
    89   45   49 1    
    90   45  107 1    
    91   46   47 1    
    92   46  108 1    
    93   46  109 1    
    94   47   48 1    
    95   48  110 1    
    96   48  111 1    
    97   49   50 am   BACKBONE|DICT|INTERRES
    98   49  112 1    
    99   50   51 2    
   100   50   52 1    
   101   52   53 1    
   102   52   54 1    
   103   52  113 1    
   104   53  114 1    
   105   53  115 1    
   106   53  116 1    
   107   54   55 am   BACKBONE|DICT|INTERRES
   108   54  117 1    
   109   55   56 2    
   110   55   57 1    
   111   57   58 1    
   112   57   59 1    
   113   57  118 1    
   114   58  119 1    
   115   58  120 1    
   116   58  121 1    
   117   59   60 am   BACKBONE|DICT|INTERRES
   118   59  122 1    
   119   60   61 2    
   120   60   62 1    
   121   62   63 1    
   122   62   64 1    
   123   62  123 1    
   124   63  124 1    
   125   63  125 1    
   126   63  126 1    
   127   64   65 am   BACKBONE|DICT|INTERRES
   128   64  127 1    
   129   65   66 2    
@<TRIPOS>SUBSTRUCTURE
     1 UNK         1 GROUP             0       ****    0 ROOT    
