@<TRIPOS>MOLECULE
3R135
127   129    1
SMALL
USER_CHARGES


@<TRIPOS>ATOM
      1 CA        -81.0094   28.9871  -70.9557 C.3       0 UNK        -0.1998 
      2 C         -81.7348   28.6446  -72.2485 C.2       0 UNK         0.4909 
      3 O         -82.9067   28.2694  -72.2165 O.2       0 UNK        -0.5240 
      4 N         -81.0416   28.7664  -73.3875 N.am      1 UNK        -0.4739 
      5 CA        -81.5497   28.4632  -74.7324 C.3       1 UNK         0.0864 
      6 C6        -80.7262   29.1867  -75.8295 C.3       11 UNK        -0.0881 
      7 S7        -78.9528   28.7404  -75.8865 S.3       11 UNK        -0.2682 
      8 C8        -78.2016   29.9904  -74.7806 C.3       11 UNK         0.0289 
      9 C9        -77.5729   29.4323  -73.5001 C.ar      11 UNK        -0.0687 
     10 C10       -77.8788   28.1629  -72.9963 C.ar      11 UNK        -0.0823 
     11 C11       -77.2972   27.6979  -71.8150 C.ar      11 UNK        -0.0830 
     12 C12       -76.4070   28.5194  -71.1199 C.ar      11 UNK        -0.1021 
     13 C13       -76.0784   29.7907  -71.6021 C.ar      11 UNK        -0.0753 
     14 C14       -76.6709   30.2344  -72.7948 C.ar      11 UNK        -0.0933 
     15 C15       -75.0998   30.6403  -70.7839 C.3       11 UNK         0.0166 
     16 S16       -74.6881   32.2740  -71.4923 S.3       11 UNK        -0.2615 
     17 C17       -72.9215   32.1111  -71.9160 C.3       11 UNK        -0.0865 
     18 CA        -72.6717   31.3921  -73.2784 C.3       10 UNK         0.0862 
     19 C         -71.3649   31.8341  -73.9989 C.2       10 UNK         0.5551 
     20 N         -71.1553   31.3844  -75.2295 N.am      10 UNK        -0.7319 
     21 O         -70.5442   32.5737  -73.4600 O.2       10 UNK        -0.5018 
     22 N         -72.7614   29.9238  -73.2017 N.am      10 UNK        -0.4509 
     23 C         -71.9533   29.1156  -72.4966 C.2       10 UNK         0.4899 
     24 O         -71.1141   29.5045  -71.6844 O.2       10 UNK        -0.4839 
     25 CA        -72.0814   27.6057  -72.7658 C.3       9 UNK         0.0222 
     26 CB        -73.2586   27.0073  -71.9829 C.3       9 UNK        -0.1966 
     27 N         -72.2370   27.3087  -74.1907 N.am      9 UNK        -0.4218 
     28 C         -71.2878   27.4949  -75.1202 C.2       9 UNK         0.5020 
     29 O         -70.1265   27.8145  -74.8635 O.2       9 UNK        -0.5274 
     30 CA        -71.7081   27.3115  -76.5887 C.3       8 UNK         0.0270 
     31 CB        -71.2997   25.9218  -77.1036 C.3       8 UNK        -0.1976 
     32 N         -73.1455   27.5150  -76.8019 N.am      8 UNK        -0.4313 
     33 C         -73.7565   28.7085  -76.7479 C.2       8 UNK         0.5041 
     34 O         -73.1558   29.7530  -76.4901 O.2       8 UNK        -0.5577 
     35 CA        -75.2853   28.7704  -76.9446 C.3       7 UNK         0.0284 
     36 CB        -75.6844   29.8058  -78.0151 C.3       7 UNK        -0.1958 
     37 N         -75.9460   27.4796  -77.1788 N.am      7 UNK        -0.4454 
     38 C         -75.8219   26.6487  -78.2245 C.2       7 UNK         0.5089 
     39 O         -75.1437   26.8938  -79.2227 O.2       7 UNK        -0.5125 
     40 CA        -76.5364   25.2856  -78.0866 C.3       6 UNK         0.0408 
     41 CB        -75.9447   24.2125  -79.0234 C.3       6 UNK        -0.1791 
     42 N         -76.5770   24.7881  -76.7020 N.am      6 UNK        -0.4762 
     43 C         -75.5292   24.5914  -75.8823 C.2       6 UNK         0.5007 
     44 O         -74.3596   24.8087  -76.1976 O.2       6 UNK        -0.5032 
     45 CA        -75.8486   24.1393  -74.4489 C.3       5 UNK         0.0783 
     46 C46       -76.3734   25.3448  -73.6386 C.3       11 UNK        -0.0857 
     47 S47       -76.4395   25.0413  -71.8445 S.3       11 UNK        -0.2512 
     48 C48       -77.6378   26.3052  -71.2979 C.3       11 UNK         0.0225 
     49 N         -76.8025   23.0311  -74.4769 N.am      5 UNK        -0.4615 
     50 C         -76.4610   21.7416  -74.5985 C.2       4 UNK         0.5053 
     51 O         -75.2981   21.3374  -74.6008 O.2       4 UNK        -0.5105 
     52 CA        -77.6088   20.7258  -74.7496 C.3       4 UNK         0.0263 
     53 CB        -78.0315   20.1866  -73.3734 C.3       4 UNK        -0.1981 
     54 N         -78.7789   21.2878  -75.4283 N.am      4 UNK        -0.4224 
     55 C         -78.8178   21.6390  -76.7225 C.2       3 UNK         0.4895 
     56 O         -77.9102   21.4088  -77.5209 O.2       3 UNK        -0.5091 
     57 CA        -80.0693   22.3966  -77.2062 C.3       3 UNK         0.0250 
     58 CB        -81.0271   21.4419  -77.9371 C.3       3 UNK        -0.1996 
     59 N         -80.7983   23.0885  -76.1350 N.am      3 UNK        -0.4254 
     60 C         -80.3147   24.1143  -75.4214 C.2       2 UNK         0.5004 
     61 O         -79.1853   24.5856  -75.5765 O.2       2 UNK        -0.5226 
     62 CA        -81.2008   24.6329  -74.2800 C.3       2 UNK         0.0269 
     63 CB        -80.7598   24.0020  -72.9485 C.3       2 UNK        -0.1926 
     64 N         -81.1374   26.0896  -74.1626 N.am      2 UNK        -0.4687 
     65 C         -81.7072   26.9504  -75.0191 C.2       1 UNK         0.5165 
     66 O         -82.3630   26.5916  -75.9990 O.2       1 UNK        -0.5079 
     67 H67       -80.9300   28.1026  -70.3243 H         1 UNK         0.0900 
     68 H68       -81.5611   29.7496  -70.4066 H         1 UNK         0.0900 
     69 H69       -80.0031   29.3647  -71.1381 H         1 UNK         0.0900 
     70 H70       -80.0852   29.0899  -73.3530 H         1 UNK         0.2959 
     71 H71       -82.5634   28.8675  -74.7852 H         1 UNK         0.1079 
     72 H72       -81.1516   28.9778  -76.8131 H         1 UNK         0.0837 
     73 H73       -80.8230   30.2666  -75.7101 H         1 UNK         0.0837 
     74 H74       -77.4424   30.5249  -75.3527 H         1 UNK         0.0685 
     75 H75       -78.9408   30.7412  -74.5003 H         1 UNK         0.0685 
     76 H76       -78.5645   27.5167  -73.5225 H         1 UNK         0.1434 
     77 H77       -75.9586   28.1612  -70.2030 H         1 UNK         0.1329 
     78 H78       -76.4454   31.2148  -73.1878 H         1 UNK         0.1335 
     79 H79       -75.5355   30.8080  -69.7981 H         1 UNK         0.0680 
     80 H80       -74.1848   30.0708  -70.6176 H         1 UNK         0.0680 
     81 H81       -72.3798   31.6413  -71.0953 H         1 UNK         0.1032 
     82 H82       -72.5439   33.1344  -71.9542 H         1 UNK         0.1032 
     83 H83       -73.4708   31.7024  -73.9536 H         1 UNK         0.0461 
     84 H84       -70.3161   31.6496  -75.7187 H         1 UNK         0.3453 
     85 H85       -71.8439   30.7882  -75.6859 H         1 UNK         0.3453 
     86 H86       -73.3897   29.5026  -73.8683 H         1 UNK         0.2984 
     87 H87       -71.1644   27.1248  -72.4186 H         1 UNK         0.0554 
     88 H88       -73.2960   25.9226  -72.0851 H         1 UNK         0.0847 
     89 H89       -74.2111   27.4084  -72.3258 H         1 UNK         0.0847 
     90 H90       -73.1761   27.2291  -70.9181 H         1 UNK         0.0847 
     91 H91       -73.1462   27.0053  -74.5044 H         1 UNK         0.3141 
     92 H92       -71.1731   28.0600  -77.1773 H         1 UNK         0.0743 
     93 H93       -71.7584   25.1218  -76.5218 H         1 UNK         0.0784 
     94 H94       -71.5836   25.7843  -78.1472 H         1 UNK         0.0784 
     95 H95       -70.2189   25.7878  -77.0411 H         1 UNK         0.0784 
     96 H96       -73.6998   26.6835  -76.9759 H         1 UNK         0.3213 
     97 H97       -75.6741   29.1224  -75.9894 H         1 UNK         0.0855 
     98 H98       -75.3071   30.7969  -77.7602 H         1 UNK         0.0814 
     99 H99       -76.7679   29.8863  -78.1030 H         1 UNK         0.0814 
    100 H100      -75.2842   29.5510  -78.9967 H         1 UNK         0.0814 
    101 H101      -76.5544   27.1702  -76.4335 H         1 UNK         0.3105 
    102 H102      -77.5733   25.4520  -78.3819 H         1 UNK         0.0547 
    103 H103      -76.0195   24.5178  -80.0677 H         1 UNK         0.0837 
    104 H104      -74.8907   24.0287  -78.8122 H         1 UNK         0.0837 
    105 H105      -76.4752   23.2658  -78.9265 H         1 UNK         0.0837 
    106 H106      -77.5123   24.6401  -76.3235 H         1 UNK         0.3020 
    107 H107      -74.9117   23.8033  -73.9975 H         1 UNK         0.1245 
    108 H108      -77.3693   25.6180  -73.9867 H         1 UNK         0.0781 
    109 H109      -75.7412   26.2215  -73.7916 H         1 UNK         0.0781 
    110 H110      -77.6679   26.3133  -70.2074 H         1 UNK         0.0836 
    111 H111      -78.6380   26.0173  -71.6221 H         1 UNK         0.0836 
    112 H112      -77.7786   23.2883  -74.5302 H         1 UNK         0.3022 
    113 H113      -77.2368   19.8909  -75.3475 H         1 UNK         0.0747 
    114 H114      -78.7971   19.4161  -73.4663 H         1 UNK         0.0793 
    115 H115      -77.1835   19.7371  -72.8546 H         1 UNK         0.0793 
    116 H116      -78.4238   20.9766  -72.7315 H         1 UNK         0.0793 
    117 H117      -79.5876   21.4830  -74.8576 H         1 UNK         0.3047 
    118 H118      -79.7299   23.1530  -77.9176 H         1 UNK         0.0822 
    119 H119      -81.8737   21.9790  -78.3652 H         1 UNK         0.0807 
    120 H120      -81.4180   20.6719  -77.2707 H         1 UNK         0.0807 
    121 H121      -80.5201   20.9342  -78.7591 H         1 UNK         0.0807 
    122 H122      -81.7292   22.7500  -75.9357 H         1 UNK         0.2946 
    123 H123      -82.2388   24.3531  -74.4751 H         1 UNK         0.1144 
    124 H124      -80.8882   22.9190  -72.9677 H         1 UNK         0.0793 
    125 H125      -81.3503   24.3796  -72.1134 H         1 UNK         0.0793 
    126 H126      -79.7087   24.1986  -72.7343 H         1 UNK         0.0793 
    127 H127      -80.6190   26.4662  -73.3854 H         1 UNK         0.2896 
@<TRIPOS>BOND
     1    1    2 1    
     2    1   67 1    
     3    1   68 1    
     4    1   69 1    
     5    2    3 2    
     6    2    4 am   BACKBONE|DICT|INTERRES
     7    4    5 1    
     8    4   70 1    
     9    5    6 1    
    10    5   65 1    
    11    5   71 1    
    12    6    7 1    
    13    6   72 1    
    14    6   73 1    
    15    7    8 1    
    16    8    9 1    
    17    8   74 1    
    18    8   75 1    
    19    9   10 ar   
    20    9   14 ar   
    21   10   11 ar   
    22   10   76 1    
    23   11   12 ar   
    24   11   48 1    
    25   12   13 ar   
    26   12   77 1    
    27   13   14 ar   
    28   13   15 1    
    29   14   78 1    
    30   15   16 1    
    31   15   79 1    
    32   15   80 1    
    33   16   17 1    
    34   17   18 1    
    35   17   81 1    
    36   17   82 1    
    37   18   19 1    
    38   18   22 1    
    39   18   83 1    
    40   19   20 am   BACKBONE|DICT|INTERRES
    41   19   21 2    
    42   20   84 1    
    43   20   85 1    
    44   22   23 am   BACKBONE|DICT|INTERRES
    45   22   86 1    
    46   23   24 2    
    47   23   25 1    
    48   25   26 1    
    49   25   27 1    
    50   25   87 1    
    51   26   88 1    
    52   26   89 1    
    53   26   90 1    
    54   27   28 am   BACKBONE|DICT|INTERRES
    55   27   91 1    
    56   28   29 2    
    57   28   30 1    
    58   30   31 1    
    59   30   32 1    
    60   30   92 1    
    61   31   93 1    
    62   31   94 1    
    63   31   95 1    
    64   32   33 am   BACKBONE|DICT|INTERRES
    65   32   96 1    
    66   33   34 2    
    67   33   35 1    
    68   35   36 1    
    69   35   37 1    
    70   35   97 1    
    71   36   98 1    
    72   36   99 1    
    73   36  100 1    
    74   37   38 am   BACKBONE|DICT|INTERRES
    75   37  101 1    
    76   38   39 2    
    77   38   40 1    
    78   40   41 1    
    79   40   42 1    
    80   40  102 1    
    81   41  103 1    
    82   41  104 1    
    83   41  105 1    
    84   42   43 am   BACKBONE|DICT|INTERRES
    85   42  106 1    
    86   43   44 2    
    87   43   45 1    
    88   45   46 1    
    89   45   49 1    
    90   45  107 1    
    91   46   47 1    
    92   46  108 1    
    93   46  109 1    
    94   47   48 1    
    95   48  110 1    
    96   48  111 1    
    97   49   50 am   BACKBONE|DICT|INTERRES
    98   49  112 1    
    99   50   51 2    
   100   50   52 1    
   101   52   53 1    
   102   52   54 1    
   103   52  113 1    
   104   53  114 1    
   105   53  115 1    
   106   53  116 1    
   107   54   55 am   BACKBONE|DICT|INTERRES
   108   54  117 1    
   109   55   56 2    
   110   55   57 1    
   111   57   58 1    
   112   57   59 1    
   113   57  118 1    
   114   58  119 1    
   115   58  120 1    
   116   58  121 1    
   117   59   60 am   BACKBONE|DICT|INTERRES
   118   59  122 1    
   119   60   61 2    
   120   60   62 1    
   121   62   63 1    
   122   62   64 1    
   123   62  123 1    
   124   63  124 1    
   125   63  125 1    
   126   63  126 1    
   127   64   65 am   BACKBONE|DICT|INTERRES
   128   64  127 1    
   129   65   66 2    
@<TRIPOS>SUBSTRUCTURE
     1 UNK         1 GROUP             0       ****    0 ROOT    
