@<TRIPOS>MOLECULE
3R135
127   129    1
SMALL
USER_CHARGES


@<TRIPOS>ATOM
      1 CA        -76.8558   20.6657  -74.4980 C.3       0 UNK        -0.1998 
      2 C         -77.7606   21.3642  -73.4951 C.2       0 UNK         0.4909 
      3 O         -78.2597   20.7222  -72.5696 O.2       0 UNK        -0.5240 
      4 N         -77.9783   22.6718  -73.6743 N.am      1 UNK        -0.4739 
      5 CA        -78.9178   23.4719  -72.8820 C.3       1 UNK         0.0864 
      6 C6        -78.5265   24.9712  -72.8878 C.3       11 UNK        -0.0881 
      7 S7        -76.8673   25.2848  -72.1957 S.3       11 UNK        -0.2682 
      8 C8        -77.2271   26.5119  -70.8937 C.3       11 UNK         0.0289 
      9 C9        -77.1793   27.9531  -71.3966 C.ar      11 UNK        -0.0687 
     10 C10       -77.9957   28.3816  -72.4505 C.ar      11 UNK        -0.0823 
     11 C11       -77.9509   29.7060  -72.8946 C.ar      11 UNK        -0.0830 
     12 C12       -77.1014   30.6162  -72.2598 C.ar      11 UNK        -0.1021 
     13 C13       -76.2913   30.2083  -71.1972 C.ar      11 UNK        -0.0753 
     14 C14       -76.3299   28.8759  -70.7755 C.ar      11 UNK        -0.0933 
     15 C15       -75.3942   31.2113  -70.4862 C.3       11 UNK         0.0166 
     16 S16       -73.6901   31.1727  -71.1192 S.3       11 UNK        -0.2615 
     17 C17       -73.8945   31.9643  -72.7558 C.3       11 UNK        -0.0865 
     18 CA        -72.5538   32.2967  -73.4647 C.3       10 UNK         0.0862 
     19 C         -71.8159   33.4996  -72.8092 C.2       10 UNK         0.5551 
     20 N         -72.2826   34.7158  -73.0585 N.am      10 UNK        -0.7319 
     21 O         -70.8494   33.3456  -72.0639 O.2       10 UNK        -0.5018 
     22 N         -71.7272   31.0919  -73.5905 N.am      10 UNK        -0.4509 
     23 C         -70.6405   30.9496  -74.3581 C.2       10 UNK         0.4899 
     24 O         -70.2133   31.8191  -75.1183 O.2       10 UNK        -0.4839 
     25 CA        -69.9097   29.5946  -74.2723 C.3       9 UNK         0.0222 
     26 CB        -68.6852   29.7055  -73.3492 C.3       9 UNK        -0.1966 
     27 N         -70.7730   28.5026  -73.8037 N.am      9 UNK        -0.4218 
     28 C         -71.7709   27.9685  -74.5212 C.2       9 UNK         0.5020 
     29 O         -72.0220   28.2850  -75.6867 O.2       9 UNK        -0.5274 
     30 CA        -72.6591   26.9536  -73.7875 C.3       8 UNK         0.0270 
     31 CB        -73.7389   27.6812  -72.9686 C.3       8 UNK        -0.1976 
     32 N         -73.3105   26.0656  -74.7482 N.am      8 UNK        -0.4313 
     33 C         -72.8172   24.8831  -75.1410 C.2       8 UNK         0.5041 
     34 O         -71.7953   24.3807  -74.6697 O.2       8 UNK        -0.5577 
     35 CA        -73.5800   24.1149  -76.2374 C.3       7 UNK         0.0284 
     36 CB        -74.4638   23.0274  -75.6099 C.3       7 UNK        -0.1958 
     37 N         -74.4065   24.9805  -77.0803 N.am      7 UNK        -0.4454 
     38 C         -73.9165   25.8318  -77.9943 C.2       7 UNK         0.5089 
     39 O         -72.7272   25.8725  -78.3117 O.2       7 UNK        -0.5125 
     40 CA        -74.8999   26.8076  -78.6753 C.3       6 UNK         0.0408 
     41 CB        -75.1287   26.4006  -80.1402 C.3       6 UNK        -0.1791 
     42 N         -76.2027   26.9434  -78.0145 N.am      6 UNK        -0.4762 
     43 C         -76.4125   27.3667  -76.7580 C.2       6 UNK         0.5007 
     44 O         -75.5066   27.6928  -75.9921 O.2       6 UNK        -0.5032 
     45 CA        -77.8716   27.3343  -76.2498 C.3       5 UNK         0.0783 
     46 C46       -78.6158   28.6750  -76.4772 C.3       11 UNK        -0.0857 
     47 S47       -77.9017   30.1227  -75.6218 S.3       11 UNK        -0.2512 
     48 C48       -78.8242   30.1651  -74.0520 C.3       11 UNK         0.0225 
     49 N         -78.6437   26.2285  -76.8356 N.am      5 UNK        -0.4615 
     50 C         -78.3584   24.9220  -76.7596 C.2       4 UNK         0.5053 
     51 O         -77.4019   24.4647  -76.1309 O.2       4 UNK        -0.5105 
     52 CA        -79.3046   23.9844  -77.5286 C.3       4 UNK         0.0263 
     53 CB        -78.8704   22.5086  -77.4579 C.3       4 UNK        -0.1981 
     54 N         -80.6857   24.1114  -77.0544 N.am      4 UNK        -0.4224 
     55 C         -81.5606   25.0373  -77.4762 C.2       3 UNK         0.4895 
     56 O         -81.2661   25.9191  -78.2846 O.2       3 UNK        -0.5091 
     57 CA        -82.9955   24.9899  -76.9161 C.3       3 UNK         0.0250 
     58 CB        -83.9221   24.2425  -77.8887 C.3       3 UNK        -0.1996 
     59 N         -83.0863   24.3680  -75.5934 N.am      3 UNK        -0.4254 
     60 C         -82.6972   24.9554  -74.4544 C.2       2 UNK         0.5004 
     61 O         -82.2847   26.1147  -74.3898 O.2       2 UNK        -0.5226 
     62 CA        -82.7107   24.1006  -73.1699 C.3       2 UNK         0.0269 
     63 CB        -83.4941   22.7719  -73.2871 C.3       2 UNK        -0.1926 
     64 N         -81.3350   23.8672  -72.7091 N.am      2 UNK        -0.4687 
     65 C         -80.3522   23.3006  -73.4269 C.2       1 UNK         0.5165 
     66 O         -80.5464   22.7328  -74.5059 O.2       1 UNK        -0.5079 
     67 H67       -77.2370   19.6697  -74.7216 H         1 UNK         0.0900 
     68 H68       -76.7987   21.2172  -75.4353 H         1 UNK         0.0900 
     69 H69       -75.8497   20.5645  -74.0921 H         1 UNK         0.0900 
     70 H70       -77.5765   23.1516  -74.4724 H         1 UNK         0.2959 
     71 H71       -78.9103   23.1139  -71.8500 H         1 UNK         0.1079 
     72 H72       -78.5534   25.3683  -73.9007 H         1 UNK         0.0837 
     73 H73       -79.2574   25.5526  -72.3247 H         1 UNK         0.0837 
     74 H74       -78.1973   26.3138  -70.4369 H         1 UNK         0.0685 
     75 H75       -76.4918   26.3689  -70.1005 H         1 UNK         0.0685 
     76 H76       -78.6671   27.6884  -72.9326 H         1 UNK         0.1434 
     77 H77       -77.0716   31.6442  -72.5945 H         1 UNK         0.1329 
     78 H78       -75.7002   28.5622  -69.9541 H         1 UNK         0.1335 
     79 H79       -75.7968   32.2215  -70.5764 H         1 UNK         0.0680 
     80 H80       -75.3748   30.9887  -69.4183 H         1 UNK         0.0680 
     81 H81       -74.4729   31.2866  -73.3862 H         1 UNK         0.1032 
     82 H82       -74.5070   32.8615  -72.6499 H         1 UNK         0.1032 
     83 H83       -72.7963   32.6039  -74.4840 H         1 UNK         0.0461 
     84 H84       -73.0736   34.8587  -73.6671 H         1 UNK         0.3453 
     85 H85       -71.8270   35.5101  -72.6369 H         1 UNK         0.3453 
     86 H86       -71.9769   30.3373  -72.9701 H         1 UNK         0.2984 
     87 H87       -69.5583   29.3452  -75.2759 H         1 UNK         0.0554 
     88 H88       -68.0081   30.4886  -73.6937 H         1 UNK         0.0847 
     89 H89       -68.1166   28.7757  -73.3274 H         1 UNK         0.0847 
     90 H90       -68.9705   29.9516  -72.3254 H         1 UNK         0.0847 
     91 H91       -70.6272   28.1822  -72.8565 H         1 UNK         0.3141 
     92 H92       -72.0409   26.3699  -73.1020 H         1 UNK         0.0743 
     93 H93       -74.3643   28.3222  -73.5920 H         1 UNK         0.0784 
     94 H94       -74.3931   26.9730  -72.4615 H         1 UNK         0.0784 
     95 H95       -73.2938   28.3110  -72.1982 H         1 UNK         0.0784 
     96 H96       -74.1031   26.4635  -75.2442 H         1 UNK         0.3213 
     97 H97       -72.8388   23.6257  -76.8734 H         1 UNK         0.0855 
     98 H98       -75.2028   23.4529  -74.9297 H         1 UNK         0.0814 
     99 H99       -73.8636   22.3198  -75.0365 H         1 UNK         0.0814 
    100 H100      -74.9922   22.4608  -76.3762 H         1 UNK         0.0814 
    101 H101      -75.3998   24.9951  -76.8788 H         1 UNK         0.3105 
    102 H102      -74.4274   27.7919  -78.6636 H         1 UNK         0.0547 
    103 H103      -74.1825   26.3272  -80.6784 H         1 UNK         0.0837 
    104 H104      -75.6218   25.4307  -80.2169 H         1 UNK         0.0837 
    105 H105      -75.7400   27.1333  -80.6673 H         1 UNK         0.0837 
    106 H106      -77.0101   26.6755  -78.5585 H         1 UNK         0.3020 
    107 H107      -77.8137   27.1556  -75.1756 H         1 UNK         0.1245 
    108 H108      -79.6601   28.5753  -76.1771 H         1 UNK         0.0781 
    109 H109      -78.6454   28.9065  -77.5436 H         1 UNK         0.0781 
    110 H110      -79.7307   29.5616  -74.1122 H         1 UNK         0.0836 
    111 H111      -79.1594   31.1879  -73.8725 H         1 UNK         0.0836 
    112 H112      -79.4683   26.4858  -77.3674 H         1 UNK         0.3022 
    113 H113      -79.2594   24.2803  -78.5789 H         1 UNK         0.0747 
    114 H114      -79.5143   21.8781  -78.0710 H         1 UNK         0.0793 
    115 H115      -77.8507   22.3818  -77.8241 H         1 UNK         0.0793 
    116 H116      -78.9012   22.1234  -76.4397 H         1 UNK         0.0793 
    117 H117      -80.9512   23.4853  -76.2995 H         1 UNK         0.3047 
    118 H118      -83.3483   26.0207  -76.8368 H         1 UNK         0.0822 
    119 H119      -84.9573   24.2650  -77.5474 H         1 UNK         0.0807 
    120 H120      -83.6287   23.1985  -78.0062 H         1 UNK         0.0807 
    121 H121      -83.8996   24.7005  -78.8787 H         1 UNK         0.0807 
    122 H122      -83.3862   23.4042  -75.5588 H         1 UNK         0.2946 
    123 H123      -83.2037   24.7081  -72.4087 H         1 UNK         0.1144 
    124 H124      -83.5288   22.2579  -72.3265 H         1 UNK         0.0793 
    125 H125      -83.0531   22.0826  -74.0075 H         1 UNK         0.0793 
    126 H126      -84.5274   22.9507  -73.5878 H         1 UNK         0.0793 
    127 H127      -81.0928   24.3197  -71.8384 H         1 UNK         0.2896 
@<TRIPOS>BOND
     1    1    2 1    
     2    1   67 1    
     3    1   68 1    
     4    1   69 1    
     5    2    3 2    
     6    2    4 am   BACKBONE|DICT|INTERRES
     7    4    5 1    
     8    4   70 1    
     9    5    6 1    
    10    5   65 1    
    11    5   71 1    
    12    6    7 1    
    13    6   72 1    
    14    6   73 1    
    15    7    8 1    
    16    8    9 1    
    17    8   74 1    
    18    8   75 1    
    19    9   10 ar   
    20    9   14 ar   
    21   10   11 ar   
    22   10   76 1    
    23   11   12 ar   
    24   11   48 1    
    25   12   13 ar   
    26   12   77 1    
    27   13   14 ar   
    28   13   15 1    
    29   14   78 1    
    30   15   16 1    
    31   15   79 1    
    32   15   80 1    
    33   16   17 1    
    34   17   18 1    
    35   17   81 1    
    36   17   82 1    
    37   18   19 1    
    38   18   22 1    
    39   18   83 1    
    40   19   20 am   BACKBONE|DICT|INTERRES
    41   19   21 2    
    42   20   84 1    
    43   20   85 1    
    44   22   23 am   BACKBONE|DICT|INTERRES
    45   22   86 1    
    46   23   24 2    
    47   23   25 1    
    48   25   26 1    
    49   25   27 1    
    50   25   87 1    
    51   26   88 1    
    52   26   89 1    
    53   26   90 1    
    54   27   28 am   BACKBONE|DICT|INTERRES
    55   27   91 1    
    56   28   29 2    
    57   28   30 1    
    58   30   31 1    
    59   30   32 1    
    60   30   92 1    
    61   31   93 1    
    62   31   94 1    
    63   31   95 1    
    64   32   33 am   BACKBONE|DICT|INTERRES
    65   32   96 1    
    66   33   34 2    
    67   33   35 1    
    68   35   36 1    
    69   35   37 1    
    70   35   97 1    
    71   36   98 1    
    72   36   99 1    
    73   36  100 1    
    74   37   38 am   BACKBONE|DICT|INTERRES
    75   37  101 1    
    76   38   39 2    
    77   38   40 1    
    78   40   41 1    
    79   40   42 1    
    80   40  102 1    
    81   41  103 1    
    82   41  104 1    
    83   41  105 1    
    84   42   43 am   BACKBONE|DICT|INTERRES
    85   42  106 1    
    86   43   44 2    
    87   43   45 1    
    88   45   46 1    
    89   45   49 1    
    90   45  107 1    
    91   46   47 1    
    92   46  108 1    
    93   46  109 1    
    94   47   48 1    
    95   48  110 1    
    96   48  111 1    
    97   49   50 am   BACKBONE|DICT|INTERRES
    98   49  112 1    
    99   50   51 2    
   100   50   52 1    
   101   52   53 1    
   102   52   54 1    
   103   52  113 1    
   104   53  114 1    
   105   53  115 1    
   106   53  116 1    
   107   54   55 am   BACKBONE|DICT|INTERRES
   108   54  117 1    
   109   55   56 2    
   110   55   57 1    
   111   57   58 1    
   112   57   59 1    
   113   57  118 1    
   114   58  119 1    
   115   58  120 1    
   116   58  121 1    
   117   59   60 am   BACKBONE|DICT|INTERRES
   118   59  122 1    
   119   60   61 2    
   120   60   62 1    
   121   62   63 1    
   122   62   64 1    
   123   62  123 1    
   124   63  124 1    
   125   63  125 1    
   126   63  126 1    
   127   64   65 am   BACKBONE|DICT|INTERRES
   128   64  127 1    
   129   65   66 2    
@<TRIPOS>SUBSTRUCTURE
     1 UNK         1 GROUP             0       ****    0 ROOT    
