@<TRIPOS>MOLECULE
3R135
127   129    1
SMALL
USER_CHARGES


@<TRIPOS>ATOM
      1 CA        -82.9251   30.7788  -73.1544 C.3       0 UNK        -0.1998 
      2 C         -81.6153   30.5122  -73.8808 C.2       0 UNK         0.4909 
      3 O         -81.3487   31.1315  -74.9113 O.2       0 UNK        -0.5240 
      4 N         -80.7926   29.6026  -73.3459 N.am      1 UNK        -0.4739 
      5 CA        -79.5342   29.1511  -73.9449 C.3       1 UNK         0.0864 
      6 C6        -78.6199   28.4396  -72.9132 C.3       11 UNK        -0.0881 
      7 S7        -79.4598   27.1844  -71.8754 S.3       11 UNK        -0.2682 
      8 C8        -78.9187   27.6525  -70.1957 C.3       11 UNK         0.0289 
      9 C9        -77.4120   27.5036  -70.0508 C.ar      11 UNK        -0.0687 
     10 C10       -76.8362   26.2332  -70.0684 C.ar      11 UNK        -0.0823 
     11 C11       -75.4473   26.0807  -70.0844 C.ar      11 UNK        -0.0830 
     12 C12       -74.6306   27.2154  -70.0331 C.ar      11 UNK        -0.1021 
     13 C13       -75.1979   28.4933  -69.9658 C.ar      11 UNK        -0.0753 
     14 C14       -76.5898   28.6286  -69.9593 C.ar      11 UNK        -0.0933 
     15 C15       -74.3090   29.7280  -69.9081 C.3       11 UNK         0.0166 
     16 S16       -73.8374   30.3160  -71.5673 S.3       11 UNK        -0.2615 
     17 C17       -75.3728   31.1344  -72.1343 C.3       11 UNK        -0.0865 
     18 CA        -75.4841   31.2792  -73.6732 C.3       10 UNK         0.0862 
     19 C         -74.5701   32.4152  -74.2210 C.2       10 UNK         0.5551 
     20 N         -73.5535   32.1274  -75.0268 N.am      10 UNK        -0.7319 
     21 O         -74.8018   33.5834  -73.9194 O.2       10 UNK        -0.5018 
     22 N         -75.3085   29.9895  -74.3537 N.am      10 UNK        -0.4509 
     23 C         -75.8013   29.6915  -75.5604 C.2       10 UNK         0.4899 
     24 O         -76.6821   30.3525  -76.1120 O.2       10 UNK        -0.4839 
     25 CA        -75.2602   28.4362  -76.2728 C.3       9 UNK         0.0222 
     26 CB        -74.9253   28.7171  -77.7514 C.3       9 UNK        -0.1966 
     27 N         -74.1325   27.7692  -75.6120 N.am      9 UNK        -0.4218 
     28 C         -72.9071   28.2463  -75.3463 C.2       9 UNK         0.5020 
     29 O         -72.5496   29.3985  -75.5942 O.2       9 UNK        -0.5274 
     30 CA        -71.9258   27.2792  -74.6688 C.3       8 UNK         0.0270 
     31 CB        -72.2205   27.1857  -73.1619 C.3       8 UNK        -0.1976 
     32 N         -72.0102   25.9416  -75.2603 N.am      8 UNK        -0.4313 
     33 C         -71.0629   25.3752  -76.0196 C.2       8 UNK         0.5041 
     34 O         -69.9845   25.9091  -76.2842 O.2       8 UNK        -0.5577 
     35 CA        -71.3485   23.9665  -76.5770 C.3       7 UNK         0.0284 
     36 CB        -70.7419   22.8950  -75.6562 C.3       7 UNK        -0.1958 
     37 N         -72.7737   23.6853  -76.7655 N.am      7 UNK        -0.4454 
     38 C         -73.5534   24.2689  -77.6858 C.2       7 UNK         0.5089 
     39 O         -73.1359   25.0559  -78.5354 O.2       7 UNK        -0.5125 
     40 CA        -75.0576   23.9318  -77.6505 C.3       6 UNK         0.0408 
     41 CB        -75.3734   22.8383  -78.6836 C.3       6 UNK        -0.1791 
     42 N         -75.6022   23.5255  -76.3456 N.am      6 UNK        -0.4762 
     43 C         -75.4932   24.2040  -75.1922 C.2       6 UNK         0.5007 
     44 O         -74.7819   25.1982  -75.0515 O.2       6 UNK        -0.5032 
     45 CA        -76.3644   23.7113  -74.0281 C.3       5 UNK         0.0783 
     46 C46       -76.1531   24.4801  -72.7007 C.3       11 UNK        -0.0857 
     47 S47       -74.5194   24.2119  -71.9257 S.3       11 UNK        -0.2512 
     48 C48       -74.8440   24.6867  -70.1939 C.3       11 UNK         0.0225 
     49 N         -77.7500   23.7932  -74.4804 N.am      5 UNK        -0.4615 
     50 C         -78.7504   23.0211  -74.0418 C.2       4 UNK         0.5053 
     51 O         -78.6153   22.1679  -73.1644 O.2       4 UNK        -0.5105 
     52 CA        -80.1351   23.2108  -74.6933 C.3       4 UNK         0.0263 
     53 CB        -81.0414   24.0624  -73.7908 C.3       4 UNK        -0.1981 
     54 N         -80.0827   23.8172  -76.0267 N.am      4 UNK        -0.4224 
     55 C         -79.5203   23.2525  -77.1053 C.2       3 UNK         0.4895 
     56 O         -79.0548   22.1124  -77.1118 O.2       3 UNK        -0.5091 
     57 CA        -79.4303   24.0954  -78.3918 C.3       3 UNK         0.0250 
     58 CB        -80.4685   23.6143  -79.4187 C.3       3 UNK        -0.1996 
     59 N         -79.5677   25.5472  -78.2211 N.am      3 UNK        -0.4254 
     60 C         -78.8029   26.3365  -77.4527 C.2       2 UNK         0.5004 
     61 O         -77.9320   25.9097  -76.6925 O.2       2 UNK        -0.5226 
     62 CA        -79.0373   27.8579  -77.5558 C.3       2 UNK         0.0269 
     63 CB        -80.3214   28.2566  -78.3204 C.3       2 UNK        -0.1926 
     64 N         -78.9947   28.5230  -76.2494 N.am      2 UNK        -0.4687 
     65 C         -79.7916   28.2858  -75.1973 C.2       1 UNK         0.5165 
     66 O         -80.6919   27.4412  -75.1894 O.2       1 UNK        -0.5079 
     67 H67       -83.7681   30.5545  -73.8074 H         1 UNK         0.0900 
     68 H68       -83.0226   30.1719  -72.2543 H         1 UNK         0.0900 
     69 H69       -82.9872   31.8273  -72.8647 H         1 UNK         0.0900 
     70 H70       -81.0750   29.0905  -72.5220 H         1 UNK         0.2959 
     71 H71       -79.0032   30.0466  -74.2781 H         1 UNK         0.1079 
     72 H72       -77.7617   27.9727  -73.4013 H         1 UNK         0.0837 
     73 H73       -78.1969   29.2011  -72.2588 H         1 UNK         0.0837 
     74 H74       -79.4189   27.0125  -69.4676 H         1 UNK         0.0685 
     75 H75       -79.2369   28.6741  -69.9820 H         1 UNK         0.0685 
     76 H76       -77.4770   25.3645  -70.1269 H         1 UNK         0.1434 
     77 H77       -73.5550   27.1050  -70.0578 H         1 UNK         0.1329 
     78 H78       -77.0353   29.6124  -69.9152 H         1 UNK         0.1335 
     79 H79       -74.8036   30.5326  -69.3617 H         1 UNK         0.0680 
     80 H80       -73.4007   29.4968  -69.3496 H         1 UNK         0.0680 
     81 H81       -75.4609   32.1046  -71.6415 H         1 UNK         0.1032 
     82 H82       -76.2281   30.5580  -71.7925 H         1 UNK         0.1032 
     83 H83       -76.5038   31.6146  -73.8737 H         1 UNK         0.0461 
     84 H84       -72.9765   32.8750  -75.3769 H         1 UNK         0.3453 
     85 H85       -73.3216   31.1646  -75.2519 H         1 UNK         0.3453 
     86 H86       -74.5935   29.3926  -73.9643 H         1 UNK         0.2984 
     87 H87       -76.0732   27.7114  -76.2509 H         1 UNK         0.0554 
     88 H88       -75.7922   29.1017  -78.2893 H         1 UNK         0.0847 
     89 H89       -74.6064   27.8084  -78.2625 H         1 UNK         0.0847 
     90 H90       -74.1291   29.4553  -77.8515 H         1 UNK         0.0847 
     91 H91       -74.3358   26.8077  -75.3334 H         1 UNK         0.3141 
     92 H92       -70.9206   27.6879  -74.7907 H         1 UNK         0.0743 
     93 H93       -72.0951   28.1560  -72.6813 H         1 UNK         0.0784 
     94 H94       -73.2398   26.8506  -72.9635 H         1 UNK         0.0784 
     95 H95       -71.5409   26.4915  -72.6676 H         1 UNK         0.0784 
     96 H96       -72.8888   25.4464  -75.1332 H         1 UNK         0.3213 
     97 H97       -70.8601   23.8961  -77.5515 H         1 UNK         0.0855 
     98 H98       -71.2022   22.9040  -74.6672 H         1 UNK         0.0814 
     99 H99       -69.6723   23.0600  -75.5187 H         1 UNK         0.0814 
    100 H100      -70.8618   21.8958  -76.0754 H         1 UNK         0.0814 
    101 H101      -73.2078   23.0473  -76.1146 H         1 UNK         0.3105 
    102 H102      -75.5917   24.8386  -77.9416 H         1 UNK         0.0547 
    103 H103      -74.8681   21.9018  -78.4443 H         1 UNK         0.0837 
    104 H104      -75.0483   23.1374  -79.6812 H         1 UNK         0.0837 
    105 H105      -76.4419   22.6342  -78.7415 H         1 UNK         0.0837 
    106 H106      -76.2223   22.7274  -76.3602 H         1 UNK         0.3020 
    107 H107      -76.1079   22.6624  -73.8616 H         1 UNK         0.1245 
    108 H108      -76.9099   24.1528  -71.9879 H         1 UNK         0.0781 
    109 H109      -76.3110   25.5511  -72.8444 H         1 UNK         0.0781 
    110 H110      -73.9096   24.6414  -69.6327 H         1 UNK         0.0836 
    111 H111      -75.5075   23.9498  -69.7383 H         1 UNK         0.0836 
    112 H112      -77.9269   24.4716  -75.2176 H         1 UNK         0.3022 
    113 H113      -80.5842   22.2206  -74.7941 H         1 UNK         0.0747 
    114 H114      -80.6607   25.0789  -73.6861 H         1 UNK         0.0793 
    115 H115      -82.0545   24.1239  -74.1882 H         1 UNK         0.0793 
    116 H116      -81.1112   23.6359  -72.7891 H         1 UNK         0.0793 
    117 H117      -80.4162   24.7683  -76.1052 H         1 UNK         0.3047 
    118 H118      -78.4370   23.9229  -78.8089 H         1 UNK         0.0822 
    119 H119      -80.3400   24.1133  -80.3795 H         1 UNK         0.0807 
    120 H120      -81.4880   23.7974  -79.0769 H         1 UNK         0.0807 
    121 H121      -80.3735   22.5425  -79.6000 H         1 UNK         0.0807 
    122 H122      -80.2727   25.9933  -78.7900 H         1 UNK         0.2946 
    123 H123      -78.1875   28.2460  -78.1191 H         1 UNK         0.1144 
    124 H124      -80.4367   29.3404  -78.3483 H         1 UNK         0.0793 
    125 H125      -81.2197   27.8451  -77.8581 H         1 UNK         0.0793 
    126 H126      -80.2919   27.9194  -79.3573 H         1 UNK         0.0793 
    127 H127      -78.2748   29.2341  -76.1593 H         1 UNK         0.2896 
@<TRIPOS>BOND
     1    1    2 1    
     2    1   67 1    
     3    1   68 1    
     4    1   69 1    
     5    2    3 2    
     6    2    4 am   BACKBONE|DICT|INTERRES
     7    4    5 1    
     8    4   70 1    
     9    5    6 1    
    10    5   65 1    
    11    5   71 1    
    12    6    7 1    
    13    6   72 1    
    14    6   73 1    
    15    7    8 1    
    16    8    9 1    
    17    8   74 1    
    18    8   75 1    
    19    9   10 ar   
    20    9   14 ar   
    21   10   11 ar   
    22   10   76 1    
    23   11   12 ar   
    24   11   48 1    
    25   12   13 ar   
    26   12   77 1    
    27   13   14 ar   
    28   13   15 1    
    29   14   78 1    
    30   15   16 1    
    31   15   79 1    
    32   15   80 1    
    33   16   17 1    
    34   17   18 1    
    35   17   81 1    
    36   17   82 1    
    37   18   19 1    
    38   18   22 1    
    39   18   83 1    
    40   19   20 am   BACKBONE|DICT|INTERRES
    41   19   21 2    
    42   20   84 1    
    43   20   85 1    
    44   22   23 am   BACKBONE|DICT|INTERRES
    45   22   86 1    
    46   23   24 2    
    47   23   25 1    
    48   25   26 1    
    49   25   27 1    
    50   25   87 1    
    51   26   88 1    
    52   26   89 1    
    53   26   90 1    
    54   27   28 am   BACKBONE|DICT|INTERRES
    55   27   91 1    
    56   28   29 2    
    57   28   30 1    
    58   30   31 1    
    59   30   32 1    
    60   30   92 1    
    61   31   93 1    
    62   31   94 1    
    63   31   95 1    
    64   32   33 am   BACKBONE|DICT|INTERRES
    65   32   96 1    
    66   33   34 2    
    67   33   35 1    
    68   35   36 1    
    69   35   37 1    
    70   35   97 1    
    71   36   98 1    
    72   36   99 1    
    73   36  100 1    
    74   37   38 am   BACKBONE|DICT|INTERRES
    75   37  101 1    
    76   38   39 2    
    77   38   40 1    
    78   40   41 1    
    79   40   42 1    
    80   40  102 1    
    81   41  103 1    
    82   41  104 1    
    83   41  105 1    
    84   42   43 am   BACKBONE|DICT|INTERRES
    85   42  106 1    
    86   43   44 2    
    87   43   45 1    
    88   45   46 1    
    89   45   49 1    
    90   45  107 1    
    91   46   47 1    
    92   46  108 1    
    93   46  109 1    
    94   47   48 1    
    95   48  110 1    
    96   48  111 1    
    97   49   50 am   BACKBONE|DICT|INTERRES
    98   49  112 1    
    99   50   51 2    
   100   50   52 1    
   101   52   53 1    
   102   52   54 1    
   103   52  113 1    
   104   53  114 1    
   105   53  115 1    
   106   53  116 1    
   107   54   55 am   BACKBONE|DICT|INTERRES
   108   54  117 1    
   109   55   56 2    
   110   55   57 1    
   111   57   58 1    
   112   57   59 1    
   113   57  118 1    
   114   58  119 1    
   115   58  120 1    
   116   58  121 1    
   117   59   60 am   BACKBONE|DICT|INTERRES
   118   59  122 1    
   119   60   61 2    
   120   60   62 1    
   121   62   63 1    
   122   62   64 1    
   123   62  123 1    
   124   63  124 1    
   125   63  125 1    
   126   63  126 1    
   127   64   65 am   BACKBONE|DICT|INTERRES
   128   64  127 1    
   129   65   66 2    
@<TRIPOS>SUBSTRUCTURE
     1 UNK         1 GROUP             0       ****    0 ROOT    
