@<TRIPOS>MOLECULE
3R135
127   129    1
SMALL
USER_CHARGES


@<TRIPOS>ATOM
      1 CA        -84.6008   29.7540  -74.8770 C.3       0 UNK        -0.1998 
      2 C         -83.3229   29.0444  -74.4550 C.2       0 UNK         0.4909 
      3 O         -82.5619   28.5966  -75.3123 O.2       0 UNK        -0.5240 
      4 N         -83.0822   28.9475  -73.1417 N.am      1 UNK        -0.4739 
      5 CA        -81.9289   28.2757  -72.5339 C.3       1 UNK         0.0864 
      6 C6        -81.8359   28.5781  -71.0140 C.3       11 UNK        -0.0881 
      7 S7        -81.5973   30.3587  -70.6725 S.3       11 UNK        -0.2682 
      8 C8        -80.0036   30.3930  -69.7779 C.3       11 UNK         0.0289 
      9 C9        -78.8781   29.6925  -70.5301 C.ar      11 UNK        -0.0687 
     10 C10       -78.6119   30.0100  -71.8648 C.ar      11 UNK        -0.0823 
     11 C11       -77.6372   29.3094  -72.5774 C.ar      11 UNK        -0.0830 
     12 C12       -76.8980   28.3091  -71.9398 C.ar      11 UNK        -0.1021 
     13 C13       -77.1242   28.0116  -70.5931 C.ar      11 UNK        -0.0753 
     14 C14       -78.1185   28.7042  -69.8951 C.ar      11 UNK        -0.0933 
     15 C15       -76.3210   26.9221  -69.8970 C.3       11 UNK         0.0166 
     16 S16       -74.7688   27.5667  -69.1938 S.3       11 UNK        -0.2615 
     17 C17       -73.6974   27.6681  -70.6697 C.3       11 UNK        -0.0865 
     18 CA        -73.5216   29.1246  -71.2039 C.3       10 UNK         0.0862 
     19 C         -72.3680   29.9201  -70.5197 C.2       10 UNK         0.5551 
     20 N         -72.1751   29.7531  -69.2186 N.am      10 UNK        -0.7319 
     21 O         -71.6738   30.7217  -71.1430 O.2       10 UNK        -0.5018 
     22 N         -73.4760   29.1742  -72.6745 N.am      10 UNK        -0.4509 
     23 C         -72.5795   28.5562  -73.4542 C.2       10 UNK         0.4899 
     24 O         -71.6704   27.8424  -73.0256 O.2       10 UNK        -0.4839 
     25 CA        -72.7747   28.7572  -74.9673 C.3       9 UNK         0.0222 
     26 CB        -72.2022   30.1040  -75.4551 C.3       9 UNK        -0.1966 
     27 N         -72.2948   27.6046  -75.7438 N.am      9 UNK        -0.4218 
     28 C         -71.0334   27.2737  -76.0587 C.2       9 UNK         0.5020 
     29 O         -70.0619   28.0120  -75.8874 O.2       9 UNK        -0.5274 
     30 CA        -70.7750   25.8769  -76.6505 C.3       8 UNK         0.0270 
     31 CB        -70.1554   24.9575  -75.5784 C.3       8 UNK        -0.1976 
     32 N         -71.9446   25.2130  -77.2477 N.am      8 UNK        -0.4313 
     33 C         -71.8400   24.2800  -78.2065 C.2       8 UNK         0.5041 
     34 O         -70.7796   23.9890  -78.7635 O.2       8 UNK        -0.5577 
     35 CA        -73.1073   23.4987  -78.5922 C.3       7 UNK         0.0284 
     36 CB        -73.4161   22.4193  -77.5427 C.3       7 UNK        -0.1958 
     37 N         -74.2890   24.3334  -78.8059 N.am      7 UNK        -0.4454 
     38 C         -74.4562   25.1494  -79.8566 C.2       7 UNK         0.5089 
     39 O         -73.5998   25.3480  -80.7188 O.2       7 UNK        -0.5125 
     40 CA        -75.8207   25.8451  -79.9803 C.3       6 UNK         0.0408 
     41 CB        -76.8432   24.9158  -80.6543 C.3       6 UNK        -0.1791 
     42 N         -76.3278   26.2636  -78.6751 N.am      6 UNK        -0.4762 
     43 C         -75.9672   27.3985  -78.0605 C.2       6 UNK         0.5007 
     44 O         -75.2437   28.2548  -78.5696 O.2       6 UNK        -0.5032 
     45 CA        -76.4817   27.6042  -76.6239 C.3       5 UNK         0.0783 
     46 C46       -77.7956   28.4289  -76.6322 C.3       11 UNK        -0.0857 
     47 S47       -78.6028   28.5775  -75.0051 S.3       11 UNK        -0.2512 
     48 C48       -77.4318   29.5859  -74.0538 C.3       11 UNK         0.0225 
     49 N         -76.5829   26.3460  -75.8730 N.am      5 UNK        -0.4615 
     50 C         -75.5382   25.5698  -75.5429 C.2       4 UNK         0.5053 
     51 O         -74.3739   25.8220  -75.8530 O.2       4 UNK        -0.5105 
     52 CA        -75.8276   24.2709  -74.7724 C.3       4 UNK         0.0263 
     53 CB        -75.8285   24.5519  -73.2614 C.3       4 UNK        -0.1981 
     54 N         -77.0877   23.6283  -75.1450 N.am      4 UNK        -0.4224 
     55 C         -77.4986   23.3317  -76.3877 C.2       3 UNK         0.4895 
     56 O         -76.7950   23.4581  -77.3918 O.2       3 UNK        -0.5091 
     57 CA        -78.9680   22.8868  -76.5403 C.3       3 UNK         0.0250 
     58 CB        -79.0480   21.3627  -76.7186 C.3       3 UNK        -0.1996 
     59 N         -79.8440   23.2962  -75.4285 N.am      3 UNK        -0.4254 
     60 C         -80.0445   24.5627  -75.0308 C.2       2 UNK         0.5004 
     61 O         -79.5355   25.5346  -75.5924 O.2       2 UNK        -0.5226 
     62 CA        -80.8826   24.7655  -73.7605 C.3       2 UNK         0.0269 
     63 CB        -80.2375   24.0689  -72.5437 C.3       2 UNK        -0.1926 
     64 N         -81.0123   26.1954  -73.4804 N.am      2 UNK        -0.4687 
     65 C         -82.0038   26.7542  -72.7782 C.2       1 UNK         0.5165 
     66 O         -82.9513   26.1164  -72.3114 O.2       1 UNK        -0.5079 
     67 H67       -85.2335   29.0773  -75.4507 H         1 UNK         0.0900 
     68 H68       -84.3632   30.6128  -75.5043 H         1 UNK         0.0900 
     69 H69       -85.1730   30.1086  -74.0198 H         1 UNK         0.0900 
     70 H70       -83.7468   29.3341  -72.4870 H         1 UNK         0.2959 
     71 H71       -81.0260   28.6581  -73.0153 H         1 UNK         0.1079 
     72 H72       -82.7444   28.2547  -70.5021 H         1 UNK         0.0837 
     73 H73       -81.0235   28.0076  -70.5604 H         1 UNK         0.0837 
     74 H74       -79.7190   31.4311  -69.6025 H         1 UNK         0.0685 
     75 H75       -80.1505   29.9423  -68.7951 H         1 UNK         0.0685 
     76 H76       -79.1992   30.7692  -72.3634 H         1 UNK         0.1434 
     77 H77       -76.1553   27.7550  -72.4962 H         1 UNK         0.1329 
     78 H78       -78.3103   28.4606  -68.8590 H         1 UNK         0.1335 
     79 H79       -76.1114   26.1011  -70.5839 H         1 UNK         0.0680 
     80 H80       -76.9121   26.4891  -69.0886 H         1 UNK         0.0680 
     81 H81       -74.1220   27.0261  -71.4416 H         1 UNK         0.1032 
     82 H82       -72.7298   27.2176  -70.4402 H         1 UNK         0.1032 
     83 H83       -74.4246   29.6855  -70.9595 H         1 UNK         0.0461 
     84 H84       -71.4460   30.2711  -68.7538 H         1 UNK         0.3453 
     85 H85       -72.7604   29.1181  -68.6960 H         1 UNK         0.3453 
     86 H86       -74.1515   29.7888  -73.1036 H         1 UNK         0.2984 
     87 H87       -73.8478   28.7858  -75.1432 H         1 UNK         0.0554 
     88 H88       -72.2906   30.2066  -76.5366 H         1 UNK         0.0847 
     89 H89       -71.1520   30.2241  -75.1880 H         1 UNK         0.0847 
     90 H90       -72.7391   30.9398  -75.0052 H         1 UNK         0.0847 
     91 H91       -73.0126   26.8951  -75.8779 H         1 UNK         0.3141 
     92 H92       -70.0306   26.0324  -77.4347 H         1 UNK         0.0743 
     93 H93       -70.8700   24.7320  -74.7858 H         1 UNK         0.0784 
     94 H94       -69.8181   24.0131  -76.0057 H         1 UNK         0.0784 
     95 H95       -69.2874   25.4253  -75.1114 H         1 UNK         0.0784 
     96 H96       -72.8574   25.3919  -76.8361 H         1 UNK         0.3213 
     97 H97       -72.8989   22.9869  -79.5347 H         1 UNK         0.0855 
     98 H98       -74.3036   21.8442  -77.8081 H         1 UNK         0.0814 
     99 H99       -73.5760   22.8508  -76.5562 H         1 UNK         0.0814 
    100 H100      -72.5870   21.7158  -77.4558 H         1 UNK         0.0814 
    101 H101      -75.0740   24.1898  -78.1788 H         1 UNK         0.3105 
    102 H102      -75.6966   26.7235  -80.6176 H         1 UNK         0.0547 
    103 H103      -76.4962   24.6072  -81.6413 H         1 UNK         0.0837 
    104 H104      -77.0166   24.0094  -80.0730 H         1 UNK         0.0837 
    105 H105      -77.8026   25.4149  -80.7906 H         1 UNK         0.0837 
    106 H106      -76.8884   25.5920  -78.1655 H         1 UNK         0.3020 
    107 H107      -75.7213   28.2039  -76.1297 H         1 UNK         0.1245 
    108 H108      -77.6166   29.4321  -77.0238 H         1 UNK         0.0781 
    109 H109      -78.5257   27.9676  -77.3005 H         1 UNK         0.0781 
    110 H110      -76.4036   29.3581  -74.3298 H         1 UNK         0.0836 
    111 H111      -77.5895   30.6421  -74.2776 H         1 UNK         0.0836 
    112 H112      -77.5229   26.0644  -75.6105 H         1 UNK         0.3022 
    113 H113      -75.0250   23.5661  -74.9877 H         1 UNK         0.0747 
    114 H114      -75.9343   23.6323  -72.6855 H         1 UNK         0.0793 
    115 H115      -74.8930   25.0195  -72.9503 H         1 UNK         0.0793 
    116 H116      -76.6404   25.2224  -72.9762 H         1 UNK         0.0793 
    117 H117      -77.7456   23.4741  -74.3964 H         1 UNK         0.3047 
    118 H118      -79.3492   23.3597  -77.4478 H         1 UNK         0.0822 
    119 H119      -80.0674   21.0399  -76.9311 H         1 UNK         0.0807 
    120 H120      -78.7046   20.8328  -75.8292 H         1 UNK         0.0807 
    121 H121      -78.4267   21.0344  -77.5534 H         1 UNK         0.0807 
    122 H122      -80.2970   22.5506  -74.9190 H         1 UNK         0.2946 
    123 H123      -81.8721   24.3419  -73.9482 H         1 UNK         0.1144 
    124 H124      -80.1478   22.9927  -72.6943 H         1 UNK         0.0793 
    125 H125      -80.8353   24.2104  -71.6431 H         1 UNK         0.0793 
    126 H126      -79.2388   24.4584  -72.3412 H         1 UNK         0.0793 
    127 H127      -80.3153   26.7767  -73.9340 H         1 UNK         0.2896 
@<TRIPOS>BOND
     1    1    2 1    
     2    1   67 1    
     3    1   68 1    
     4    1   69 1    
     5    2    3 2    
     6    2    4 am   BACKBONE|DICT|INTERRES
     7    4    5 1    
     8    4   70 1    
     9    5    6 1    
    10    5   65 1    
    11    5   71 1    
    12    6    7 1    
    13    6   72 1    
    14    6   73 1    
    15    7    8 1    
    16    8    9 1    
    17    8   74 1    
    18    8   75 1    
    19    9   10 ar   
    20    9   14 ar   
    21   10   11 ar   
    22   10   76 1    
    23   11   12 ar   
    24   11   48 1    
    25   12   13 ar   
    26   12   77 1    
    27   13   14 ar   
    28   13   15 1    
    29   14   78 1    
    30   15   16 1    
    31   15   79 1    
    32   15   80 1    
    33   16   17 1    
    34   17   18 1    
    35   17   81 1    
    36   17   82 1    
    37   18   19 1    
    38   18   22 1    
    39   18   83 1    
    40   19   20 am   BACKBONE|DICT|INTERRES
    41   19   21 2    
    42   20   84 1    
    43   20   85 1    
    44   22   23 am   BACKBONE|DICT|INTERRES
    45   22   86 1    
    46   23   24 2    
    47   23   25 1    
    48   25   26 1    
    49   25   27 1    
    50   25   87 1    
    51   26   88 1    
    52   26   89 1    
    53   26   90 1    
    54   27   28 am   BACKBONE|DICT|INTERRES
    55   27   91 1    
    56   28   29 2    
    57   28   30 1    
    58   30   31 1    
    59   30   32 1    
    60   30   92 1    
    61   31   93 1    
    62   31   94 1    
    63   31   95 1    
    64   32   33 am   BACKBONE|DICT|INTERRES
    65   32   96 1    
    66   33   34 2    
    67   33   35 1    
    68   35   36 1    
    69   35   37 1    
    70   35   97 1    
    71   36   98 1    
    72   36   99 1    
    73   36  100 1    
    74   37   38 am   BACKBONE|DICT|INTERRES
    75   37  101 1    
    76   38   39 2    
    77   38   40 1    
    78   40   41 1    
    79   40   42 1    
    80   40  102 1    
    81   41  103 1    
    82   41  104 1    
    83   41  105 1    
    84   42   43 am   BACKBONE|DICT|INTERRES
    85   42  106 1    
    86   43   44 2    
    87   43   45 1    
    88   45   46 1    
    89   45   49 1    
    90   45  107 1    
    91   46   47 1    
    92   46  108 1    
    93   46  109 1    
    94   47   48 1    
    95   48  110 1    
    96   48  111 1    
    97   49   50 am   BACKBONE|DICT|INTERRES
    98   49  112 1    
    99   50   51 2    
   100   50   52 1    
   101   52   53 1    
   102   52   54 1    
   103   52  113 1    
   104   53  114 1    
   105   53  115 1    
   106   53  116 1    
   107   54   55 am   BACKBONE|DICT|INTERRES
   108   54  117 1    
   109   55   56 2    
   110   55   57 1    
   111   57   58 1    
   112   57   59 1    
   113   57  118 1    
   114   58  119 1    
   115   58  120 1    
   116   58  121 1    
   117   59   60 am   BACKBONE|DICT|INTERRES
   118   59  122 1    
   119   60   61 2    
   120   60   62 1    
   121   62   63 1    
   122   62   64 1    
   123   62  123 1    
   124   63  124 1    
   125   63  125 1    
   126   63  126 1    
   127   64   65 am   BACKBONE|DICT|INTERRES
   128   64  127 1    
   129   65   66 2    
@<TRIPOS>SUBSTRUCTURE
     1 UNK         1 GROUP             0       ****    0 ROOT    
