@<TRIPOS>MOLECULE
3R135
127   129    1
SMALL
USER_CHARGES


@<TRIPOS>ATOM
      1 CA        -80.6099   22.6535  -71.1427 C.3       0 UNK        -0.1998 
      2 C         -80.6739   23.9094  -71.9976 C.2       0 UNK         0.4909 
      3 O         -79.7498   24.1419  -72.7773 O.2       0 UNK        -0.5240 
      4 N         -81.7583   24.6898  -71.8395 N.am      1 UNK        -0.4739 
      5 CA        -82.1183   25.9669  -72.4869 C.3       1 UNK         0.0864 
      6 C6        -82.0661   27.2202  -71.5470 C.3       11 UNK        -0.0881 
      7 S7        -80.8894   27.2276  -70.1420 S.3       11 UNK        -0.2682 
      8 C8        -79.2591   27.1324  -70.9376 C.3       11 UNK         0.0289 
      9 C9        -78.6244   28.4825  -71.2483 C.ar      11 UNK        -0.0687 
     10 C10       -79.1114   29.2742  -72.2895 C.ar      11 UNK        -0.0823 
     11 C11       -78.4480   30.4390  -72.6792 C.ar      11 UNK        -0.0830 
     12 C12       -77.2938   30.8299  -71.9960 C.ar      11 UNK        -0.1021 
     13 C13       -76.8024   30.0626  -70.9340 C.ar      11 UNK        -0.0753 
     14 C14       -77.4827   28.8974  -70.5574 C.ar      11 UNK        -0.0933 
     15 C15       -75.5315   30.5043  -70.2135 C.3       11 UNK         0.0166 
     16 S16       -74.3830   29.1409  -69.8176 S.3       11 UNK        -0.2615 
     17 C17       -74.0014   28.4527  -71.4670 C.3       11 UNK        -0.0865 
     18 CA        -72.8073   29.1364  -72.1841 C.3       10 UNK         0.0862 
     19 C         -71.4322   28.7650  -71.5411 C.2       10 UNK         0.5551 
     20 N         -70.5507   28.0286  -72.2080 N.am      10 UNK        -0.7319 
     21 O         -71.1436   29.1724  -70.4190 O.2       10 UNK        -0.5018 
     22 N         -72.8929   28.8968  -73.6324 N.am      10 UNK        -0.4509 
     23 C         -72.1982   29.5556  -74.5686 C.2       10 UNK         0.4899 
     24 O         -71.5030   30.5454  -74.3339 O.2       10 UNK        -0.4839 
     25 CA        -72.2816   28.9901  -76.0024 C.3       9 UNK         0.0222 
     26 CB        -71.1307   29.4787  -76.9070 C.3       9 UNK        -0.1966 
     27 N         -72.3797   27.5228  -76.0385 N.am      9 UNK        -0.4218 
     28 C         -71.5152   26.6412  -75.5103 C.2       9 UNK         0.5020 
     29 O         -70.4737   26.9625  -74.9369 O.2       9 UNK        -0.5274 
     30 CA        -71.8777   25.1490  -75.5886 C.3       8 UNK         0.0270 
     31 CB        -72.3192   24.6252  -74.2111 C.3       8 UNK        -0.1976 
     32 N         -72.9051   24.8454  -76.5914 N.am      8 UNK        -0.4313 
     33 C         -72.6353   24.6920  -77.8951 C.2       8 UNK         0.5041 
     34 O         -71.5185   24.8542  -78.3889 O.2       8 UNK        -0.5577 
     35 CA        -73.7985   24.2679  -78.7972 C.3       7 UNK         0.0284 
     36 CB        -74.1783   22.7977  -78.5485 C.3       7 UNK        -0.1958 
     37 N         -74.9725   25.1248  -78.6227 N.am      7 UNK        -0.4454 
     38 C         -75.1815   26.2424  -79.3316 C.2       7 UNK         0.5089 
     39 O         -74.3589   26.7237  -80.1117 O.2       7 UNK        -0.5125 
     40 CA        -76.5561   26.9127  -79.1907 C.3       6 UNK         0.0408 
     41 CB        -77.6437   26.0558  -79.8594 C.3       6 UNK        -0.1791 
     42 N         -76.9287   27.1945  -77.8044 N.am      6 UNK        -0.4762 
     43 C         -76.4162   28.1998  -77.0782 C.2       6 UNK         0.5007 
     44 O         -75.5267   28.9471  -77.4837 O.2       6 UNK        -0.5032 
     45 CA        -76.9970   28.4094  -75.6654 C.3       5 UNK         0.0783 
     46 C46       -78.3322   29.2014  -75.7078 C.3       11 UNK        -0.0857 
     47 S47       -78.0643   30.9810  -75.3924 S.3       11 UNK        -0.2512 
     48 C48       -78.9835   31.2655  -73.8415 C.3       11 UNK         0.0225 
     49 N         -77.1104   27.1350  -74.9531 N.am      5 UNK        -0.4615 
     50 C         -76.0537   26.4908  -74.4392 C.2       4 UNK         0.5053 
     51 O         -74.9139   26.9567  -74.4300 O.2       4 UNK        -0.5105 
     52 CA        -76.2776   25.0815  -73.8689 C.3       4 UNK         0.0263 
     53 CB        -76.3988   25.1118  -72.3412 C.3       4 UNK        -0.1981 
     54 N         -77.4290   24.3939  -74.4577 N.am      4 UNK        -0.4224 
     55 C         -77.4210   23.9087  -75.7065 C.2       3 UNK         0.4895 
     56 O         -76.4749   24.0409  -76.4841 O.2       3 UNK        -0.5091 
     57 CA        -78.6792   23.1691  -76.1783 C.3       3 UNK         0.0250 
     58 CB        -78.7952   21.7957  -75.4971 C.3       3 UNK        -0.1996 
     59 N         -79.9139   23.9266  -75.9747 N.am      3 UNK        -0.4254 
     60 C         -80.1958   25.1091  -76.5379 C.2       2 UNK         0.5004 
     61 O         -79.4022   25.7598  -77.2169 O.2       2 UNK        -0.5226 
     62 CA        -81.6092   25.6594  -76.2948 C.3       2 UNK         0.0269 
     63 CB        -82.6230   24.9906  -77.2371 C.3       2 UNK        -0.1926 
     64 N         -82.0493   25.5074  -74.9048 N.am      2 UNK        -0.4687 
     65 C         -81.5155   26.2032  -73.8916 C.2       1 UNK         0.5165 
     66 O         -80.5893   26.9964  -74.0471 O.2       1 UNK        -0.5079 
     67 H67       -80.5567   21.7706  -71.7790 H         1 UNK         0.0900 
     68 H68       -79.7189   22.6755  -70.5157 H         1 UNK         0.0900 
     69 H69       -81.4793   22.5534  -70.4933 H         1 UNK         0.0900 
     70 H70       -82.4445   24.3793  -71.1662 H         1 UNK         0.2959 
     71 H71       -83.1812   25.8391  -72.7017 H         1 UNK         0.1079 
     72 H72       -83.0477   27.3247  -71.0820 H         1 UNK         0.0837 
     73 H73       -81.9510   28.1469  -72.1101 H         1 UNK         0.0837 
     74 H74       -78.6079   26.5565  -70.2788 H         1 UNK         0.0685 
     75 H75       -79.3338   26.5587  -71.8573 H         1 UNK         0.0685 
     76 H76       -79.9963   28.9719  -72.8234 H         1 UNK         0.1434 
     77 H77       -76.7752   31.7293  -72.2994 H         1 UNK         0.1329 
     78 H78       -77.0993   28.2908  -69.7487 H         1 UNK         0.1335 
     79 H79       -74.9914   31.2429  -70.8081 H         1 UNK         0.0680 
     80 H80       -75.8144   31.0022  -69.2854 H         1 UNK         0.0680 
     81 H81       -73.8172   27.3821  -71.3630 H         1 UNK         0.1032 
     82 H82       -74.8998   28.5279  -72.0813 H         1 UNK         0.1032 
     83 H83       -72.9196   30.2141  -72.0519 H         1 UNK         0.0461 
     84 H84       -70.7234   27.7208  -73.1594 H         1 UNK         0.3453 
     85 H85       -69.6687   27.8139  -71.7718 H         1 UNK         0.3453 
     86 H86       -73.4707   28.1128  -73.9249 H         1 UNK         0.2984 
     87 H87       -73.2115   29.3731  -76.4200 H         1 UNK         0.0554 
     88 H88       -71.1309   30.5662  -76.9888 H         1 UNK         0.0847 
     89 H89       -71.2243   29.0796  -77.9169 H         1 UNK         0.0847 
     90 H90       -70.1562   29.1820  -76.5176 H         1 UNK         0.0847 
     91 H91       -73.2328   27.1531  -76.4338 H         1 UNK         0.3141 
     92 H92       -70.9647   24.6140  -75.8597 H         1 UNK         0.0743 
     93 H93       -73.1572   25.1888  -73.8056 H         1 UNK         0.0784 
     94 H94       -72.6046   23.5740  -74.2538 H         1 UNK         0.0784 
     95 H95       -71.5048   24.7085  -73.4900 H         1 UNK         0.0784 
     96 H96       -73.8506   24.6957  -76.2669 H         1 UNK         0.3213 
     97 H97       -73.4558   24.3392  -79.8323 H         1 UNK         0.0855 
     98 H98       -74.5025   22.6222  -77.5226 H         1 UNK         0.0814 
     99 H99       -73.3275   22.1410  -78.7351 H         1 UNK         0.0814 
    100 H100      -74.9833   22.4798  -79.2112 H         1 UNK         0.0814 
    101 H101      -75.6772   24.8088  -77.9580 H         1 UNK         0.3105 
    102 H102      -76.5159   27.8629  -79.7279 H         1 UNK         0.0547 
    103 H103      -77.3943   25.8489  -80.9009 H         1 UNK         0.0837 
    104 H104      -77.7710   25.0960  -79.3569 H         1 UNK         0.0837 
    105 H105      -78.6078   26.5645  -79.8524 H         1 UNK         0.0837 
    106 H106      -77.6840   26.6329  -77.4175 H         1 UNK         0.3020 
    107 H107      -76.2653   29.0056  -75.1135 H         1 UNK         0.1245 
    108 H108      -79.0297   28.8174  -74.9677 H         1 UNK         0.0781 
    109 H109      -78.8536   29.0860  -76.6604 H         1 UNK         0.0781 
    110 H110      -80.0407   31.0534  -74.0095 H         1 UNK         0.0836 
    111 H111      -78.9259   32.3251  -73.5883 H         1 UNK         0.0836 
    112 H112      -78.0220   26.6990  -74.9234 H         1 UNK         0.3022 
    113 H113      -75.3898   24.4943  -74.1097 H         1 UNK         0.0747 
    114 H114      -76.5018   24.1078  -71.9295 H         1 UNK         0.0793 
    115 H115      -75.5161   25.5629  -71.8867 H         1 UNK         0.0793 
    116 H116      -77.2596   25.6925  -72.0265 H         1 UNK         0.0793 
    117 H117      -78.2616   24.2807  -73.8791 H         1 UNK         0.3047 
    118 H118      -78.5730   23.0047  -77.2527 H         1 UNK         0.0822 
    119 H119      -79.6191   21.2154  -75.9128 H         1 UNK         0.0807 
    120 H120      -78.9589   21.8881  -74.4225 H         1 UNK         0.0807 
    121 H121      -77.8851   21.2111  -75.6398 H         1 UNK         0.0807 
    122 H122      -80.6093   23.5098  -75.3735 H         1 UNK         0.2946 
    123 H123      -81.5835   26.7266  -76.5292 H         1 UNK         0.1144 
    124 H124      -83.6108   25.4416  -77.1410 H         1 UNK         0.0793 
    125 H125      -82.7204   23.9225  -77.0389 H         1 UNK         0.0793 
    126 H126      -82.3182   25.1022  -78.2788 H         1 UNK         0.0793 
    127 H127      -82.7968   24.8531  -74.7215 H         1 UNK         0.2896 
@<TRIPOS>BOND
     1    1    2 1    
     2    1   67 1    
     3    1   68 1    
     4    1   69 1    
     5    2    3 2    
     6    2    4 am   BACKBONE|DICT|INTERRES
     7    4    5 1    
     8    4   70 1    
     9    5    6 1    
    10    5   65 1    
    11    5   71 1    
    12    6    7 1    
    13    6   72 1    
    14    6   73 1    
    15    7    8 1    
    16    8    9 1    
    17    8   74 1    
    18    8   75 1    
    19    9   10 ar   
    20    9   14 ar   
    21   10   11 ar   
    22   10   76 1    
    23   11   12 ar   
    24   11   48 1    
    25   12   13 ar   
    26   12   77 1    
    27   13   14 ar   
    28   13   15 1    
    29   14   78 1    
    30   15   16 1    
    31   15   79 1    
    32   15   80 1    
    33   16   17 1    
    34   17   18 1    
    35   17   81 1    
    36   17   82 1    
    37   18   19 1    
    38   18   22 1    
    39   18   83 1    
    40   19   20 am   BACKBONE|DICT|INTERRES
    41   19   21 2    
    42   20   84 1    
    43   20   85 1    
    44   22   23 am   BACKBONE|DICT|INTERRES
    45   22   86 1    
    46   23   24 2    
    47   23   25 1    
    48   25   26 1    
    49   25   27 1    
    50   25   87 1    
    51   26   88 1    
    52   26   89 1    
    53   26   90 1    
    54   27   28 am   BACKBONE|DICT|INTERRES
    55   27   91 1    
    56   28   29 2    
    57   28   30 1    
    58   30   31 1    
    59   30   32 1    
    60   30   92 1    
    61   31   93 1    
    62   31   94 1    
    63   31   95 1    
    64   32   33 am   BACKBONE|DICT|INTERRES
    65   32   96 1    
    66   33   34 2    
    67   33   35 1    
    68   35   36 1    
    69   35   37 1    
    70   35   97 1    
    71   36   98 1    
    72   36   99 1    
    73   36  100 1    
    74   37   38 am   BACKBONE|DICT|INTERRES
    75   37  101 1    
    76   38   39 2    
    77   38   40 1    
    78   40   41 1    
    79   40   42 1    
    80   40  102 1    
    81   41  103 1    
    82   41  104 1    
    83   41  105 1    
    84   42   43 am   BACKBONE|DICT|INTERRES
    85   42  106 1    
    86   43   44 2    
    87   43   45 1    
    88   45   46 1    
    89   45   49 1    
    90   45  107 1    
    91   46   47 1    
    92   46  108 1    
    93   46  109 1    
    94   47   48 1    
    95   48  110 1    
    96   48  111 1    
    97   49   50 am   BACKBONE|DICT|INTERRES
    98   49  112 1    
    99   50   51 2    
   100   50   52 1    
   101   52   53 1    
   102   52   54 1    
   103   52  113 1    
   104   53  114 1    
   105   53  115 1    
   106   53  116 1    
   107   54   55 am   BACKBONE|DICT|INTERRES
   108   54  117 1    
   109   55   56 2    
   110   55   57 1    
   111   57   58 1    
   112   57   59 1    
   113   57  118 1    
   114   58  119 1    
   115   58  120 1    
   116   58  121 1    
   117   59   60 am   BACKBONE|DICT|INTERRES
   118   59  122 1    
   119   60   61 2    
   120   60   62 1    
   121   62   63 1    
   122   62   64 1    
   123   62  123 1    
   124   63  124 1    
   125   63  125 1    
   126   63  126 1    
   127   64   65 am   BACKBONE|DICT|INTERRES
   128   64  127 1    
   129   65   66 2    
@<TRIPOS>SUBSTRUCTURE
     1 UNK         1 GROUP             0       ****    0 ROOT    
