@<TRIPOS>MOLECULE
3R135
127   129    1
SMALL
USER_CHARGES


@<TRIPOS>ATOM
      1 CA        -79.9446   27.0292  -70.2503 C.3       0 UNK        -0.1998 
      2 C         -81.2848   27.6583  -69.8726 C.2       0 UNK         0.4909 
      3 O         -81.4568   28.0234  -68.7113 O.2       0 UNK        -0.5240 
      4 N         -82.2666   27.8195  -70.7752 N.am      1 UNK        -0.4739 
      5 CA        -82.3234   27.4504  -72.1987 C.3       1 UNK         0.0864 
      6 C6        -81.5072   28.3939  -73.1284 C.3       11 UNK        -0.0881 
      7 S7        -82.0897   30.1238  -73.0629 S.3       11 UNK        -0.2682 
      8 C8        -80.9494   30.9038  -71.8662 C.3       11 UNK         0.0289 
      9 C9        -79.4752   30.7358  -72.2190 C.ar      11 UNK        -0.0687 
     10 C10       -79.0144   30.9997  -73.5136 C.ar      11 UNK        -0.0823 
     11 C11       -77.6699   30.8057  -73.8425 C.ar      11 UNK        -0.0830 
     12 C12       -76.7735   30.4015  -72.8524 C.ar      11 UNK        -0.1021 
     13 C13       -77.2164   30.1408  -71.5544 C.ar      11 UNK        -0.0753 
     14 C14       -78.5688   30.3076  -71.2428 C.ar      11 UNK        -0.0933 
     15 C15       -76.2260   29.6890  -70.4921 C.3       11 UNK         0.0166 
     16 S16       -76.1469   27.8744  -70.3339 S.3       11 UNK        -0.2615 
     17 C17       -75.4588   27.3537  -71.9441 C.3       11 UNK        -0.0865 
     18 CA        -73.9352   27.6348  -72.0995 C.3       10 UNK         0.0862 
     19 C         -73.0304   26.4783  -71.5788 C.2       10 UNK         0.5551 
     20 N         -71.8978   26.1877  -72.2093 N.am      10 UNK        -0.7319 
     21 O         -73.3484   25.8344  -70.5828 O.2       10 UNK        -0.5018 
     22 N         -73.6099   28.0226  -73.4811 N.am      10 UNK        -0.4509 
     23 C         -73.1341   29.2115  -73.8695 C.2       10 UNK         0.4899 
     24 O         -73.0152   30.1780  -73.1154 O.2       10 UNK        -0.4839 
     25 CA        -72.7314   29.3511  -75.3554 C.3       9 UNK         0.0222 
     26 CB        -71.6853   30.4644  -75.5766 C.3       9 UNK        -0.1966 
     27 N         -72.2848   28.0998  -75.9935 N.am      9 UNK        -0.4218 
     28 C         -71.2788   27.3109  -75.5817 C.2       9 UNK         0.5020 
     29 O         -70.6301   27.5284  -74.5562 O.2       9 UNK        -0.5274 
     30 CA        -70.9379   26.0696  -76.4249 C.3       8 UNK         0.0270 
     31 CB        -70.3240   24.9368  -75.5707 C.3       8 UNK        -0.1976 
     32 N         -72.0790   25.5426  -77.1831 N.am      8 UNK        -0.4313 
     33 C         -71.9407   24.8603  -78.3306 C.2       8 UNK         0.5041 
     34 O         -70.8721   24.7568  -78.9362 O.2       8 UNK        -0.5577 
     35 CA        -73.1709   24.1274  -78.8905 C.3       7 UNK         0.0284 
     36 CB        -73.3807   22.7896  -78.1642 C.3       7 UNK        -0.1958 
     37 N         -74.4027   24.9139  -78.8511 N.am      7 UNK        -0.4454 
     38 C         -74.6636   25.9312  -79.6835 C.2       7 UNK         0.5089 
     39 O         -73.8705   26.3552  -80.5248 O.2       7 UNK        -0.5125 
     40 CA        -76.0525   26.5789  -79.5663 C.3       6 UNK         0.0408 
     41 CB        -77.1003   25.7669  -80.3446 C.3       6 UNK        -0.1791 
     42 N         -76.4806   26.7291  -78.1760 N.am      6 UNK        -0.4762 
     43 C         -75.9409   27.6069  -77.3198 C.2       6 UNK         0.5007 
     44 O         -75.0305   28.3801  -77.6177 O.2       6 UNK        -0.5032 
     45 CA        -76.4786   27.5807  -75.8744 C.3       5 UNK         0.0783 
     46 C46       -77.8715   28.2508  -75.7378 C.3       11 UNK        -0.0857 
     47 S47       -78.0426   29.9244  -76.4636 S.3       11 UNK        -0.2512 
     48 C48       -77.1827   31.0033  -75.2700 C.3       11 UNK         0.0225 
     49 N         -76.4923   26.2086  -75.3485 N.am      5 UNK        -0.4615 
     50 C         -75.4003   25.4457  -75.1731 C.2       4 UNK         0.5053 
     51 O         -74.2537   25.8687  -75.3137 O.2       4 UNK        -0.5105 
     52 CA        -75.5919   23.9586  -74.8174 C.3       4 UNK         0.0263 
     53 CB        -75.4203   23.7242  -73.3099 C.3       4 UNK        -0.1981 
     54 N         -76.8731   23.4005  -75.2462 N.am      4 UNK        -0.4224 
     55 C         -77.3282   23.3583  -76.5063 C.2       3 UNK         0.4895 
     56 O         -76.6582   23.6891  -77.4849 O.2       3 UNK        -0.5091 
     57 CA        -78.7991   22.9406  -76.6994 C.3       3 UNK         0.0250 
     58 CB        -78.8805   21.4806  -77.1719 C.3       3 UNK        -0.1996 
     59 N         -79.6421   23.1163  -75.5051 N.am      3 UNK        -0.4254 
     60 C         -79.8483   24.2795  -74.8696 C.2       2 UNK         0.5004 
     61 O         -79.3433   25.3509  -75.2187 O.2       2 UNK        -0.5226 
     62 CA        -80.6876   24.2267  -73.5893 C.3       2 UNK         0.0269 
     63 CB        -79.8667   23.6239  -72.4309 C.3       2 UNK        -0.1926 
     64 N         -81.0922   25.5898  -73.2591 N.am      2 UNK        -0.4687 
     65 C         -82.0610   25.9419  -72.4075 C.2       1 UNK         0.5165 
     66 O         -82.7433   25.1256  -71.7851 O.2       1 UNK        -0.5079 
     67 H67       -79.1895   27.2827  -69.5063 H         1 UNK         0.0900 
     68 H68       -80.0268   25.9434  -70.2766 H         1 UNK         0.0900 
     69 H69       -79.5696   27.3755  -71.2090 H         1 UNK         0.0900 
     70 H70       -83.1273   28.2257  -70.4366 H         1 UNK         0.2959 
     71 H71       -83.3708   27.5744  -72.4796 H         1 UNK         0.1079 
     72 H72       -80.4385   28.3511  -72.9298 H         1 UNK         0.0837 
     73 H73       -81.6225   28.0838  -74.1688 H         1 UNK         0.0837 
     74 H74       -81.1748   31.9696  -71.8156 H         1 UNK         0.0685 
     75 H75       -81.1574   30.5017  -70.8742 H         1 UNK         0.0685 
     76 H76       -79.7098   31.3201  -74.2774 H         1 UNK         0.1434 
     77 H77       -75.7288   30.2692  -73.0929 H         1 UNK         0.1329 
     78 H78       -78.9130   30.1013  -70.2384 H         1 UNK         0.1335 
     79 H79       -75.2320   30.0831  -70.7084 H         1 UNK         0.0680 
     80 H80       -76.5109   30.1096  -69.5266 H         1 UNK         0.0680 
     81 H81       -75.6721   26.2938  -72.0711 H         1 UNK         0.1032 
     82 H82       -76.0324   27.8409  -72.7307 H         1 UNK         0.1032 
     83 H83       -73.6811   28.4691  -71.4452 H         1 UNK         0.0461 
     84 H84       -71.3212   25.4414  -71.8560 H         1 UNK         0.3453 
     85 H85       -71.5781   26.7390  -72.9988 H         1 UNK         0.3453 
     86 H86       -73.6546   27.2714  -74.1650 H         1 UNK         0.2984 
     87 H87       -73.6380   29.6582  -75.8753 H         1 UNK         0.0554 
     88 H88       -71.4376   30.5721  -76.6325 H         1 UNK         0.0847 
     89 H89       -70.7612   30.2630  -75.0336 H         1 UNK         0.0847 
     90 H90       -72.0590   31.4307  -75.2353 H         1 UNK         0.0847 
     91 H91       -72.7929   27.8364  -76.8283 H         1 UNK         0.3141 
     92 H92       -70.1750   26.4125  -77.1281 H         1 UNK         0.0743 
     93 H93       -71.0340   24.5703  -74.8270 H         1 UNK         0.0784 
     94 H94       -70.0178   24.0907  -76.1867 H         1 UNK         0.0784 
     95 H95       -69.4343   25.2757  -75.0379 H         1 UNK         0.0784 
     96 H96       -72.9819   25.5828  -76.7147 H         1 UNK         0.3213 
     97 H97       -72.9628   23.8976  -79.9382 H         1 UNK         0.0855 
     98 H98       -73.5258   22.9280  -77.0947 H         1 UNK         0.0814 
     99 H99       -72.5121   22.1417  -78.2894 H         1 UNK         0.0814 
    100 H100      -74.2453   22.2527  -78.5555 H         1 UNK         0.0814 
    101 H101      -75.1470   24.5878  -78.2391 H         1 UNK         0.3105 
    102 H102      -75.9968   27.5733  -80.0148 H         1 UNK         0.0547 
    103 H103      -78.0754   26.2536  -80.3233 H         1 UNK         0.0837 
    104 H104      -76.8132   25.6652  -81.3920 H         1 UNK         0.0837 
    105 H105      -77.2184   24.7606  -79.9412 H         1 UNK         0.0837 
    106 H106      -77.1793   26.0817  -77.8385 H         1 UNK         0.3020 
    107 H107      -75.7792   28.1582  -75.2692 H         1 UNK         0.1245 
    108 H108      -78.1696   28.2795  -74.6890 H         1 UNK         0.0781 
    109 H109      -78.6222   27.6323  -76.2314 H         1 UNK         0.0781 
    110 H110      -77.3371   32.0439  -75.5584 H         1 UNK         0.0836 
    111 H111      -76.1095   30.8211  -75.3459 H         1 UNK         0.0836 
    112 H112      -77.4108   25.7926  -75.2235 H         1 UNK         0.3022 
    113 H113      -74.8062   23.4043  -75.3294 H         1 UNK         0.0747 
    114 H114      -75.3840   22.6591  -73.0800 H         1 UNK         0.0793 
    115 H115      -74.4883   24.1594  -72.9469 H         1 UNK         0.0793 
    116 H116      -76.2389   24.1584  -72.7356 H         1 UNK         0.0793 
    117 H117      -77.4971   23.0938  -74.5153 H         1 UNK         0.3047 
    118 H118      -79.2088   23.5788  -77.4852 H         1 UNK         0.0822 
    119 H119      -78.5097   20.7889  -76.4144 H         1 UNK         0.0807 
    120 H120      -78.2834   21.3280  -78.0725 H         1 UNK         0.0807 
    121 H121      -79.9049   21.1975  -77.4146 H         1 UNK         0.0807 
    122 H122      -80.0840   22.2823  -75.1443 H         1 UNK         0.2946 
    123 H123      -81.5773   23.6213  -73.7769 H         1 UNK         0.1144 
    124 H124      -79.5361   22.6109  -72.6628 H         1 UNK         0.0793 
    125 H125      -78.9780   24.2187  -72.2156 H         1 UNK         0.0793 
    126 H126      -80.4541   23.5617  -71.5149 H         1 UNK         0.0793 
    127 H127      -80.5844   26.2939  -73.7811 H         1 UNK         0.2896 
@<TRIPOS>BOND
     1    1    2 1    
     2    1   67 1    
     3    1   68 1    
     4    1   69 1    
     5    2    3 2    
     6    2    4 am   BACKBONE|DICT|INTERRES
     7    4    5 1    
     8    4   70 1    
     9    5    6 1    
    10    5   65 1    
    11    5   71 1    
    12    6    7 1    
    13    6   72 1    
    14    6   73 1    
    15    7    8 1    
    16    8    9 1    
    17    8   74 1    
    18    8   75 1    
    19    9   10 ar   
    20    9   14 ar   
    21   10   11 ar   
    22   10   76 1    
    23   11   12 ar   
    24   11   48 1    
    25   12   13 ar   
    26   12   77 1    
    27   13   14 ar   
    28   13   15 1    
    29   14   78 1    
    30   15   16 1    
    31   15   79 1    
    32   15   80 1    
    33   16   17 1    
    34   17   18 1    
    35   17   81 1    
    36   17   82 1    
    37   18   19 1    
    38   18   22 1    
    39   18   83 1    
    40   19   20 am   BACKBONE|DICT|INTERRES
    41   19   21 2    
    42   20   84 1    
    43   20   85 1    
    44   22   23 am   BACKBONE|DICT|INTERRES
    45   22   86 1    
    46   23   24 2    
    47   23   25 1    
    48   25   26 1    
    49   25   27 1    
    50   25   87 1    
    51   26   88 1    
    52   26   89 1    
    53   26   90 1    
    54   27   28 am   BACKBONE|DICT|INTERRES
    55   27   91 1    
    56   28   29 2    
    57   28   30 1    
    58   30   31 1    
    59   30   32 1    
    60   30   92 1    
    61   31   93 1    
    62   31   94 1    
    63   31   95 1    
    64   32   33 am   BACKBONE|DICT|INTERRES
    65   32   96 1    
    66   33   34 2    
    67   33   35 1    
    68   35   36 1    
    69   35   37 1    
    70   35   97 1    
    71   36   98 1    
    72   36   99 1    
    73   36  100 1    
    74   37   38 am   BACKBONE|DICT|INTERRES
    75   37  101 1    
    76   38   39 2    
    77   38   40 1    
    78   40   41 1    
    79   40   42 1    
    80   40  102 1    
    81   41  103 1    
    82   41  104 1    
    83   41  105 1    
    84   42   43 am   BACKBONE|DICT|INTERRES
    85   42  106 1    
    86   43   44 2    
    87   43   45 1    
    88   45   46 1    
    89   45   49 1    
    90   45  107 1    
    91   46   47 1    
    92   46  108 1    
    93   46  109 1    
    94   47   48 1    
    95   48  110 1    
    96   48  111 1    
    97   49   50 am   BACKBONE|DICT|INTERRES
    98   49  112 1    
    99   50   51 2    
   100   50   52 1    
   101   52   53 1    
   102   52   54 1    
   103   52  113 1    
   104   53  114 1    
   105   53  115 1    
   106   53  116 1    
   107   54   55 am   BACKBONE|DICT|INTERRES
   108   54  117 1    
   109   55   56 2    
   110   55   57 1    
   111   57   58 1    
   112   57   59 1    
   113   57  118 1    
   114   58  119 1    
   115   58  120 1    
   116   58  121 1    
   117   59   60 am   BACKBONE|DICT|INTERRES
   118   59  122 1    
   119   60   61 2    
   120   60   62 1    
   121   62   63 1    
   122   62   64 1    
   123   62  123 1    
   124   63  124 1    
   125   63  125 1    
   126   63  126 1    
   127   64   65 am   BACKBONE|DICT|INTERRES
   128   64  127 1    
   129   65   66 2    
@<TRIPOS>SUBSTRUCTURE
     1 UNK         1 GROUP             0       ****    0 ROOT    
