@<TRIPOS>MOLECULE
3R135
127   129    1
SMALL
USER_CHARGES


@<TRIPOS>ATOM
      1 CA        -83.4980   30.2560  -74.2884 C.3       0 UNK        -0.1998 
      2 C         -82.3658   29.2430  -74.2283 C.2       0 UNK         0.4909 
      3 O         -81.4016   29.3526  -74.9843 O.2       0 UNK        -0.5240 
      4 N         -82.4779   28.2403  -73.3489 N.am      1 UNK        -0.4739 
      5 CA        -81.4710   27.1994  -73.0883 C.3       1 UNK         0.0864 
      6 C6        -81.5912   26.6435  -71.6441 C.3       11 UNK        -0.0881 
      7 S7        -81.4668   27.9458  -70.3692 S.3       11 UNK        -0.2682 
      8 C8        -79.7571   27.7338  -69.7540 C.3       11 UNK         0.0289 
      9 C9        -78.6393   28.2818  -70.6472 C.ar      11 UNK        -0.0687 
     10 C10       -78.8715   29.1807  -71.6984 C.ar      11 UNK        -0.0823 
     11 C11       -77.8164   29.6642  -72.4790 C.ar      11 UNK        -0.0830 
     12 C12       -76.5077   29.2890  -72.1643 C.ar      11 UNK        -0.1021 
     13 C13       -76.2546   28.4077  -71.1103 C.ar      11 UNK        -0.0753 
     14 C14       -77.3229   27.8998  -70.3661 C.ar      11 UNK        -0.0933 
     15 C15       -74.8229   28.0225  -70.7748 C.3       11 UNK         0.0166 
     16 S16       -74.2445   26.6913  -71.8678 S.3       11 UNK        -0.2615 
     17 C17       -72.4247   26.8063  -71.7242 C.3       11 UNK        -0.0865 
     18 CA        -71.8131   28.1343  -72.2555 C.3       10 UNK         0.0862 
     19 C         -70.2573   28.1087  -72.2344 C.2       10 UNK         0.5551 
     20 N         -69.5637   28.5119  -73.2939 N.am      10 UNK        -0.7319 
     21 O         -69.6635   27.7357  -71.2253 O.2       10 UNK        -0.5018 
     22 N         -72.3635   28.5075  -73.5654 N.am      10 UNK        -0.4509 
     23 C         -72.8289   29.7203  -73.8891 C.2       10 UNK         0.4899 
     24 O         -72.8990   30.6589  -73.0940 O.2       10 UNK        -0.4839 
     25 CA        -73.3110   29.9234  -75.3404 C.3       9 UNK         0.0222 
     26 CB        -73.1679   31.3843  -75.8164 C.3       9 UNK        -0.1966 
     27 N         -72.7075   28.9981  -76.3087 N.am      9 UNK        -0.4218 
     28 C         -71.4001   28.8544  -76.5777 C.2       9 UNK         0.5020 
     29 O         -70.5161   29.5252  -76.0393 O.2       9 UNK        -0.5274 
     30 CA        -71.0152   27.7466  -77.5804 C.3       8 UNK         0.0270 
     31 CB        -69.5031   27.4373  -77.5647 C.3       8 UNK        -0.1976 
     32 N         -71.7763   26.4998  -77.4206 N.am      8 UNK        -0.4313 
     33 C         -71.9464   25.7732  -76.3059 C.2       8 UNK         0.5041 
     34 O         -71.5498   26.1198  -75.1917 O.2       8 UNK        -0.5577 
     35 CA        -72.7133   24.4468  -76.4784 C.3       7 UNK         0.0284 
     36 CB        -72.7318   23.6032  -75.1900 C.3       7 UNK        -0.1958 
     37 N         -74.0876   24.6901  -76.9253 N.am      7 UNK        -0.4454 
     38 C         -74.4400   24.9822  -78.1877 C.2       7 UNK         0.5089 
     39 O         -73.6375   24.9863  -79.1229 O.2       7 UNK        -0.5125 
     40 CA        -75.9010   25.3937  -78.4646 C.3       6 UNK         0.0408 
     41 CB        -76.6990   24.1999  -79.0102 C.3       6 UNK        -0.1791 
     42 N         -76.6015   25.9544  -77.3067 N.am      6 UNK        -0.4762 
     43 C         -76.2070   27.0219  -76.5960 C.2       6 UNK         0.5007 
     44 O         -75.2404   27.7199  -76.9052 O.2       6 UNK        -0.5032 
     45 CA        -76.9751   27.3104  -75.2872 C.3       5 UNK         0.0783 
     46 C46       -78.0395   28.4238  -75.4686 C.3       11 UNK        -0.0857 
     47 S47       -77.3321   30.0870  -75.2162 S.3       11 UNK        -0.2512 
     48 C48       -78.0986   30.6116  -73.6422 C.3       11 UNK         0.0225 
     49 N         -77.5501   26.1018  -74.6824 N.am      5 UNK        -0.4615 
     50 C         -76.8393   25.0594  -74.2283 C.2       4 UNK         0.5053 
     51 O         -75.6222   24.9553  -74.3530 O.2       4 UNK        -0.5105 
     52 CA        -77.6322   23.9187  -73.5757 C.3       4 UNK         0.0263 
     53 CB        -78.2438   24.3721  -72.2403 C.3       4 UNK        -0.1981 
     54 N         -78.6736   23.4253  -74.4790 N.am      4 UNK        -0.4224 
     55 C         -78.4107   22.6999  -75.5784 C.2       3 UNK         0.4895 
     56 O         -77.2929   22.2664  -75.8581 O.2       3 UNK        -0.5091 
     57 CA        -79.5712   22.4199  -76.5512 C.3       3 UNK         0.0250 
     58 CB        -80.1674   21.0275  -76.2894 C.3       3 UNK        -0.1996 
     59 N         -80.6438   23.4169  -76.5172 N.am      3 UNK        -0.4254 
     60 C         -80.5059   24.7235  -76.7826 C.2       2 UNK         0.5004 
     61 O         -79.4387   25.2514  -77.0969 O.2       2 UNK        -0.5226 
     62 CA        -81.7557   25.6066  -76.6220 C.3       2 UNK         0.0269 
     63 CB        -83.0875   24.8217  -76.6181 C.3       2 UNK        -0.1926 
     64 N         -81.6675   26.4584  -75.4309 N.am      2 UNK        -0.4687 
     65 C         -81.4666   26.0819  -74.1588 C.2       1 UNK         0.5165 
     66 O         -81.2684   24.9124  -73.8224 O.2       1 UNK        -0.5079 
     67 H67       -84.2822   30.0341  -73.5649 H         1 UNK         0.0900 
     68 H68       -83.9438   30.2617  -75.2825 H         1 UNK         0.0900 
     69 H69       -83.1167   31.2551  -74.0797 H         1 UNK         0.0900 
     70 H70       -83.3028   28.1898  -72.7677 H         1 UNK         0.2959 
     71 H71       -80.4869   27.6560  -73.1755 H         1 UNK         0.1079 
     72 H72       -82.5507   26.1389  -71.5163 H         1 UNK         0.0837 
     73 H73       -80.8337   25.8863  -71.4434 H         1 UNK         0.0837 
     74 H74       -79.6881   28.2381  -68.7893 H         1 UNK         0.0685 
     75 H75       -79.5844   26.6749  -69.5552 H         1 UNK         0.0685 
     76 H76       -79.8757   29.5139  -71.9173 H         1 UNK         0.1434 
     77 H77       -75.6830   29.6777  -72.7460 H         1 UNK         0.1329 
     78 H78       -77.1255   27.2172  -69.5507 H         1 UNK         0.1335 
     79 H79       -74.7381   27.7007  -69.7358 H         1 UNK         0.0680 
     80 H80       -74.1924   28.9047  -70.8784 H         1 UNK         0.0680 
     81 H81       -72.0071   25.9619  -72.2764 H         1 UNK         0.1032 
     82 H82       -72.1484   26.6500  -70.6799 H         1 UNK         0.1032 
     83 H83       -72.0668   28.9094  -71.5326 H         1 UNK         0.0461 
     84 H84       -68.5573   28.4945  -73.2592 H         1 UNK         0.3453 
     85 H85       -70.0341   28.8298  -74.1336 H         1 UNK         0.3453 
     86 H86       -72.2900   27.7878  -74.2783 H         1 UNK         0.2984 
     87 H87       -74.3748   29.6895  -75.3272 H         1 UNK         0.0554 
     88 H88       -73.5390   31.5074  -76.8337 H         1 UNK         0.0847 
     89 H89       -72.1299   31.7175  -75.7933 H         1 UNK         0.0847 
     90 H90       -73.7415   32.0612  -75.1821 H         1 UNK         0.0847 
     91 H91       -73.3734   28.3775  -76.7623 H         1 UNK         0.3141 
     92 H92       -71.2645   28.1351  -78.5689 H         1 UNK         0.0743 
     93 H93       -69.1791   27.0724  -76.5890 H         1 UNK         0.0784 
     94 H94       -69.2437   26.6832  -78.3077 H         1 UNK         0.0784 
     95 H95       -68.9160   28.3281  -77.7919 H         1 UNK         0.0784 
     96 H96       -72.2088   26.1332  -78.2641 H         1 UNK         0.3213 
     97 H97       -72.1919   23.8642  -77.2411 H         1 UNK         0.0855 
     98 H98       -73.1666   24.1492  -74.3523 H         1 UNK         0.0814 
     99 H99       -71.7194   23.3220  -74.8978 H         1 UNK         0.0814 
    100 H100      -73.3008   22.6830  -75.3228 H         1 UNK         0.0814 
    101 H101      -74.7856   24.7629  -76.1901 H         1 UNK         0.3105 
    102 H102      -75.8795   26.1689  -79.2328 H         1 UNK         0.0547 
    103 H103      -76.2342   23.7992  -79.9120 H         1 UNK         0.0837 
    104 H104      -76.7535   23.3882  -78.2846 H         1 UNK         0.0837 
    105 H105      -77.7179   24.4867  -79.2711 H         1 UNK         0.0837 
    106 H106      -77.4618   25.4915  -77.0266 H         1 UNK         0.3020 
    107 H107      -76.2262   27.6579  -74.5709 H         1 UNK         0.1245 
    108 H108      -78.8530   28.2965  -74.7552 H         1 UNK         0.0781 
    109 H109      -78.5133   28.3764  -76.4513 H         1 UNK         0.0781 
    110 H110      -79.1726   30.7193  -73.8030 H         1 UNK         0.0836 
    111 H111      -77.7262   31.6037  -73.3846 H         1 UNK         0.0836 
    112 H112      -78.5549   26.0608  -74.6261 H         1 UNK         0.3022 
    113 H113      -76.9402   23.0998  -73.3659 H         1 UNK         0.0747 
    114 H114      -78.8388   23.5818  -71.7825 H         1 UNK         0.0793 
    115 H115      -77.4605   24.6448  -71.5313 H         1 UNK         0.0793 
    116 H116      -78.8794   25.2469  -72.3634 H         1 UNK         0.0793 
    117 H117      -79.6229   23.7452  -74.3150 H         1 UNK         0.3047 
    118 H118      -79.1528   22.4291  -77.5599 H         1 UNK         0.0822 
    119 H119      -80.9223   20.7716  -77.0331 H         1 UNK         0.0807 
    120 H120      -80.6301   20.9656  -75.3036 H         1 UNK         0.0807 
    121 H121      -79.3960   20.2573  -76.3363 H         1 UNK         0.0807 
    122 H122      -81.5542   23.0896  -76.2283 H         1 UNK         0.2946 
    123 H123      -81.7653   26.2720  -77.4871 H         1 UNK         0.1144 
    124 H124      -83.1789   24.1933  -77.5053 H         1 UNK         0.0793 
    125 H125      -83.9380   25.5036  -76.6247 H         1 UNK         0.0793 
    126 H126      -83.1924   24.1813  -75.7416 H         1 UNK         0.0793 
    127 H127      -81.7353   27.4579  -75.5966 H         1 UNK         0.2896 
@<TRIPOS>BOND
     1    1    2 1    
     2    1   67 1    
     3    1   68 1    
     4    1   69 1    
     5    2    3 2    
     6    2    4 am   BACKBONE|DICT|INTERRES
     7    4    5 1    
     8    4   70 1    
     9    5    6 1    
    10    5   65 1    
    11    5   71 1    
    12    6    7 1    
    13    6   72 1    
    14    6   73 1    
    15    7    8 1    
    16    8    9 1    
    17    8   74 1    
    18    8   75 1    
    19    9   10 ar   
    20    9   14 ar   
    21   10   11 ar   
    22   10   76 1    
    23   11   12 ar   
    24   11   48 1    
    25   12   13 ar   
    26   12   77 1    
    27   13   14 ar   
    28   13   15 1    
    29   14   78 1    
    30   15   16 1    
    31   15   79 1    
    32   15   80 1    
    33   16   17 1    
    34   17   18 1    
    35   17   81 1    
    36   17   82 1    
    37   18   19 1    
    38   18   22 1    
    39   18   83 1    
    40   19   20 am   BACKBONE|DICT|INTERRES
    41   19   21 2    
    42   20   84 1    
    43   20   85 1    
    44   22   23 am   BACKBONE|DICT|INTERRES
    45   22   86 1    
    46   23   24 2    
    47   23   25 1    
    48   25   26 1    
    49   25   27 1    
    50   25   87 1    
    51   26   88 1    
    52   26   89 1    
    53   26   90 1    
    54   27   28 am   BACKBONE|DICT|INTERRES
    55   27   91 1    
    56   28   29 2    
    57   28   30 1    
    58   30   31 1    
    59   30   32 1    
    60   30   92 1    
    61   31   93 1    
    62   31   94 1    
    63   31   95 1    
    64   32   33 am   BACKBONE|DICT|INTERRES
    65   32   96 1    
    66   33   34 2    
    67   33   35 1    
    68   35   36 1    
    69   35   37 1    
    70   35   97 1    
    71   36   98 1    
    72   36   99 1    
    73   36  100 1    
    74   37   38 am   BACKBONE|DICT|INTERRES
    75   37  101 1    
    76   38   39 2    
    77   38   40 1    
    78   40   41 1    
    79   40   42 1    
    80   40  102 1    
    81   41  103 1    
    82   41  104 1    
    83   41  105 1    
    84   42   43 am   BACKBONE|DICT|INTERRES
    85   42  106 1    
    86   43   44 2    
    87   43   45 1    
    88   45   46 1    
    89   45   49 1    
    90   45  107 1    
    91   46   47 1    
    92   46  108 1    
    93   46  109 1    
    94   47   48 1    
    95   48  110 1    
    96   48  111 1    
    97   49   50 am   BACKBONE|DICT|INTERRES
    98   49  112 1    
    99   50   51 2    
   100   50   52 1    
   101   52   53 1    
   102   52   54 1    
   103   52  113 1    
   104   53  114 1    
   105   53  115 1    
   106   53  116 1    
   107   54   55 am   BACKBONE|DICT|INTERRES
   108   54  117 1    
   109   55   56 2    
   110   55   57 1    
   111   57   58 1    
   112   57   59 1    
   113   57  118 1    
   114   58  119 1    
   115   58  120 1    
   116   58  121 1    
   117   59   60 am   BACKBONE|DICT|INTERRES
   118   59  122 1    
   119   60   61 2    
   120   60   62 1    
   121   62   63 1    
   122   62   64 1    
   123   62  123 1    
   124   63  124 1    
   125   63  125 1    
   126   63  126 1    
   127   64   65 am   BACKBONE|DICT|INTERRES
   128   64  127 1    
   129   65   66 2    
@<TRIPOS>SUBSTRUCTURE
     1 UNK         1 GROUP             0       ****    0 ROOT    
