@<TRIPOS>MOLECULE
3R135
127   129    1
SMALL
USER_CHARGES


@<TRIPOS>ATOM
      1 CA        -87.1380   26.1928  -71.7119 C.3       0 UNK        -0.1998 
      2 C         -85.9713   26.9192  -72.3646 C.2       0 UNK         0.4909 
      3 O         -86.1476   27.5439  -73.4114 O.2       0 UNK        -0.5240 
      4 N         -84.7831   26.8501  -71.7507 N.am      1 UNK        -0.4739 
      5 CA        -83.5396   27.4240  -72.2746 C.3       1 UNK         0.0864 
      6 C6        -82.4727   27.5437  -71.1575 C.3       11 UNK        -0.0881 
      7 S7        -81.2376   28.8384  -71.5061 S.3       11 UNK        -0.2682 
      8 C8        -79.7895   27.8223  -71.9220 C.3       11 UNK         0.0289 
      9 C9        -78.6016   28.6903  -72.3023 C.ar      11 UNK        -0.0687 
     10 C10       -78.4948   29.2164  -73.5939 C.ar      11 UNK        -0.0823 
     11 C11       -77.3952   30.0049  -73.9510 C.ar      11 UNK        -0.0830 
     12 C12       -76.4015   30.2660  -73.0025 C.ar      11 UNK        -0.1021 
     13 C13       -76.5043   29.7532  -71.7060 C.ar      11 UNK        -0.0753 
     14 C14       -77.6060   28.9665  -71.3614 C.ar      11 UNK        -0.0933 
     15 C15       -75.4354   30.0671  -70.6699 C.3       11 UNK         0.0166 
     16 S16       -74.3521   28.6432  -70.3204 S.3       11 UNK        -0.2615 
     17 C17       -73.6697   28.2250  -71.9627 C.3       11 UNK        -0.0865 
     18 CA        -72.7112   29.2850  -72.5725 C.3       10 UNK         0.0862 
     19 C         -71.3024   29.2861  -71.8991 C.2       10 UNK         0.5551 
     20 N         -70.2097   29.0458  -72.6142 N.am      10 UNK        -0.7319 
     21 O         -71.1893   29.5322  -70.7014 O.2       10 UNK        -0.5018 
     22 N         -72.6897   29.1568  -74.0370 N.am      10 UNK        -0.4509 
     23 C         -72.3358   30.1223  -74.8946 C.2       10 UNK         0.4899 
     24 O         -72.0974   31.2826  -74.5565 O.2       10 UNK        -0.4839 
     25 CA        -72.2121   29.7047  -76.3776 C.3       9 UNK         0.0222 
     26 CB        -71.4033   30.7181  -77.2151 C.3       9 UNK        -0.1966 
     27 N         -71.6774   28.3439  -76.5547 N.am      9 UNK        -0.4218 
     28 C         -70.5072   27.8774  -76.0873 C.2       9 UNK         0.5020 
     29 O         -69.7050   28.5701  -75.4598 O.2       9 UNK        -0.5274 
     30 CA        -70.1780   26.3937  -76.3191 C.3       8 UNK         0.0270 
     31 CB        -69.5275   25.7529  -75.0765 C.3       8 UNK        -0.1976 
     32 N         -71.3538   25.6063  -76.6964 N.am      8 UNK        -0.4313 
     33 C         -71.3449   24.5955  -77.5780 C.2       8 UNK         0.5041 
     34 O         -70.3624   24.2982  -78.2605 O.2       8 UNK        -0.5577 
     35 CA        -72.6441   23.7741  -77.7239 C.3       7 UNK         0.0284 
     36 CB        -72.3840   22.3013  -78.1053 C.3       7 UNK        -0.1958 
     37 N         -73.5240   23.8687  -76.5528 N.am      7 UNK        -0.4454 
     38 C         -73.2638   23.4827  -75.2921 C.2       7 UNK         0.5089 
     39 O         -72.2536   22.8605  -74.9628 O.2       7 UNK        -0.5125 
     40 CA        -74.2854   23.8856  -74.2064 C.3       6 UNK         0.0408 
     41 CB        -73.5927   24.2966  -72.8899 C.3       6 UNK        -0.1791 
     42 N         -75.2376   24.9185  -74.6366 N.am      6 UNK        -0.4762 
     43 C         -74.9690   26.1853  -74.9975 C.2       6 UNK         0.5007 
     44 O         -73.8342   26.6723  -74.9901 O.2       6 UNK        -0.5032 
     45 CA        -76.1688   26.9960  -75.5402 C.3       5 UNK         0.0783 
     46 C46       -75.7593   28.3511  -76.1717 C.3       11 UNK        -0.0857 
     47 S47       -77.2163   29.3350  -76.6611 S.3       11 UNK        -0.2512 
     48 C48       -77.2860   30.5993  -75.3506 C.3       11 UNK         0.0225 
     49 N         -77.0065   26.1769  -76.4271 N.am      5 UNK        -0.4615 
     50 C         -76.6050   25.5164  -77.5251 C.2       4 UNK         0.5053 
     51 O         -75.4663   25.6062  -77.9854 O.2       4 UNK        -0.5105 
     52 CA        -77.6086   24.5471  -78.1889 C.3       4 UNK         0.0263 
     53 CB        -76.9029   23.3072  -78.7798 C.3       4 UNK        -0.1981 
     54 N         -78.7142   24.1349  -77.3114 N.am      4 UNK        -0.4224 
     55 C         -78.6292   23.5415  -76.1088 C.2       3 UNK         0.4895 
     56 O         -77.5679   23.1783  -75.5965 O.2       3 UNK        -0.5091 
     57 CA        -79.9500   23.4047  -75.3213 C.3       3 UNK         0.0250 
     58 CB        -79.7116   23.2765  -73.8013 C.3       3 UNK        -0.1996 
     59 N         -80.9176   24.4836  -75.5859 N.am      3 UNK        -0.4254 
     60 C         -80.7175   25.8053  -75.4517 C.2       2 UNK         0.5004 
     61 O         -79.6337   26.3066  -75.1506 O.2       2 UNK        -0.5226 
     62 CA        -81.9116   26.7383  -75.7266 C.3       2 UNK         0.0269 
     63 CB        -83.0152   26.1094  -76.6085 C.3       2 UNK        -0.1926 
     64 N         -82.4777   27.2846  -74.4866 N.am      2 UNK        -0.4687 
     65 C         -83.0265   26.5966  -73.4735 C.2       1 UNK         0.5165 
     66 O         -83.1298   25.3671  -73.4473 O.2       1 UNK        -0.5079 
     67 H67       -86.8438   25.6965  -70.7872 H         1 UNK         0.0900 
     68 H68       -87.5359   25.4381  -72.3898 H         1 UNK         0.0900 
     69 H69       -87.9361   26.8973  -71.4792 H         1 UNK         0.0900 
     70 H70       -84.6911   26.2933  -70.9130 H         1 UNK         0.2959 
     71 H71       -83.7822   28.4286  -72.6301 H         1 UNK         0.1079 
     72 H72       -82.9509   27.8294  -70.2189 H         1 UNK         0.0837 
     73 H73       -81.9880   26.5856  -70.9578 H         1 UNK         0.0837 
     74 H74       -80.0365   27.1509  -72.7429 H         1 UNK         0.0685 
     75 H75       -79.5378   27.1864  -71.0716 H         1 UNK         0.0685 
     76 H76       -79.2650   29.0052  -74.3237 H         1 UNK         0.1434 
     77 H77       -75.5498   30.8771  -73.2694 H         1 UNK         0.1329 
     78 H78       -77.6858   28.5694  -70.3585 H         1 UNK         0.1335 
     79 H79       -75.9189   30.3697  -69.7400 H         1 UNK         0.0680 
     80 H80       -74.8319   30.9207  -70.9802 H         1 UNK         0.0680 
     81 H81       -74.5195   28.0584  -72.6252 H         1 UNK         0.1032 
     82 H82       -73.1696   27.2580  -71.8934 H         1 UNK         0.1032 
     83 H83       -73.1297   30.2699  -72.3651 H         1 UNK         0.0461 
     84 H84       -69.3148   29.0626  -72.1525 H         1 UNK         0.3453 
     85 H85       -70.2495   28.8907  -73.6161 H         1 UNK         0.3453 
     86 H86       -72.8912   28.2316  -74.4056 H         1 UNK         0.2984 
     87 H87       -73.2258   29.6932  -76.7772 H         1 UNK         0.0554 
     88 H88       -71.3449   30.4134  -78.2599 H         1 UNK         0.0847 
     89 H89       -70.3850   30.8310  -76.8413 H         1 UNK         0.0847 
     90 H90       -71.8680   31.7046  -77.1931 H         1 UNK         0.0847 
     91 H91       -72.2729   27.7016  -77.0579 H         1 UNK         0.3141 
     92 H92       -69.4505   26.3794  -77.1332 H         1 UNK         0.0743 
     93 H93       -70.1967   25.7816  -74.2155 H         1 UNK         0.0784 
     94 H94       -69.2645   24.7108  -75.2595 H         1 UNK         0.0784 
     95 H95       -68.6090   26.2703  -74.7964 H         1 UNK         0.0784 
     96 H96       -72.1992   25.7743  -76.1611 H         1 UNK         0.3213 
     97 H97       -73.1917   24.2318  -78.5491 H         1 UNK         0.0855 
     98 H98       -71.7667   21.7928  -77.3643 H         1 UNK         0.0814 
     99 H99       -71.8644   22.2310  -79.0616 H         1 UNK         0.0814 
    100 H100      -73.3171   21.7468  -78.2044 H         1 UNK         0.0814 
    101 H101      -74.3768   24.3929  -76.7174 H         1 UNK         0.3105 
    102 H102      -74.8826   22.9950  -74.0057 H         1 UNK         0.0547 
    103 H103      -73.0414   23.4587  -72.4618 H         1 UNK         0.0837 
    104 H104      -72.8775   25.1046  -73.0447 H         1 UNK         0.0837 
    105 H105      -74.3153   24.6227  -72.1421 H         1 UNK         0.0837 
    106 H106      -76.1860   24.5804  -74.7711 H         1 UNK         0.3020 
    107 H107      -76.7821   27.2132  -74.6644 H         1 UNK         0.1245 
    108 H108      -75.1389   28.1914  -77.0547 H         1 UNK         0.0781 
    109 H109      -75.1605   28.9355  -75.4729 H         1 UNK         0.0781 
    110 H110      -78.1484   31.2428  -75.5292 H         1 UNK         0.0836 
    111 H111      -76.4064   31.2395  -75.4350 H         1 UNK         0.0836 
    112 H112      -77.9680   26.0689  -76.1140 H         1 UNK         0.3022 
    113 H113      -78.0599   25.1002  -79.0137 H         1 UNK         0.0747 
    114 H114      -77.6159   22.6327  -79.2535 H         1 UNK         0.0793 
    115 H115      -76.1763   23.5927  -79.5416 H         1 UNK         0.0793 
    116 H116      -76.3659   22.7444  -78.0153 H         1 UNK         0.0793 
    117 H117      -79.6363   24.4052  -77.6238 H         1 UNK         0.3047 
    118 H118      -80.4134   22.4790  -75.6657 H         1 UNK         0.0822 
    119 H119      -79.1028   22.4016  -73.5696 H         1 UNK         0.0807 
    120 H120      -80.6521   23.1678  -73.2609 H         1 UNK         0.0807 
    121 H121      -79.1952   24.1493  -73.3997 H         1 UNK         0.0807 
    122 H122      -81.8503   24.1813  -75.8318 H         1 UNK         0.2946 
    123 H123      -81.5015   27.5861  -76.2786 H         1 UNK         0.1144 
    124 H124      -82.6032   25.7305  -77.5449 H         1 UNK         0.0793 
    125 H125      -83.7696   26.8510  -76.8717 H         1 UNK         0.0793 
    126 H126      -83.5303   25.2849  -76.1148 H         1 UNK         0.0793 
    127 H127      -82.4022   28.2878  -74.3873 H         1 UNK         0.2896 
@<TRIPOS>BOND
     1    1    2 1    
     2    1   67 1    
     3    1   68 1    
     4    1   69 1    
     5    2    3 2    
     6    2    4 am   BACKBONE|DICT|INTERRES
     7    4    5 1    
     8    4   70 1    
     9    5    6 1    
    10    5   65 1    
    11    5   71 1    
    12    6    7 1    
    13    6   72 1    
    14    6   73 1    
    15    7    8 1    
    16    8    9 1    
    17    8   74 1    
    18    8   75 1    
    19    9   10 ar   
    20    9   14 ar   
    21   10   11 ar   
    22   10   76 1    
    23   11   12 ar   
    24   11   48 1    
    25   12   13 ar   
    26   12   77 1    
    27   13   14 ar   
    28   13   15 1    
    29   14   78 1    
    30   15   16 1    
    31   15   79 1    
    32   15   80 1    
    33   16   17 1    
    34   17   18 1    
    35   17   81 1    
    36   17   82 1    
    37   18   19 1    
    38   18   22 1    
    39   18   83 1    
    40   19   20 am   BACKBONE|DICT|INTERRES
    41   19   21 2    
    42   20   84 1    
    43   20   85 1    
    44   22   23 am   BACKBONE|DICT|INTERRES
    45   22   86 1    
    46   23   24 2    
    47   23   25 1    
    48   25   26 1    
    49   25   27 1    
    50   25   87 1    
    51   26   88 1    
    52   26   89 1    
    53   26   90 1    
    54   27   28 am   BACKBONE|DICT|INTERRES
    55   27   91 1    
    56   28   29 2    
    57   28   30 1    
    58   30   31 1    
    59   30   32 1    
    60   30   92 1    
    61   31   93 1    
    62   31   94 1    
    63   31   95 1    
    64   32   33 am   BACKBONE|DICT|INTERRES
    65   32   96 1    
    66   33   34 2    
    67   33   35 1    
    68   35   36 1    
    69   35   37 1    
    70   35   97 1    
    71   36   98 1    
    72   36   99 1    
    73   36  100 1    
    74   37   38 am   BACKBONE|DICT|INTERRES
    75   37  101 1    
    76   38   39 2    
    77   38   40 1    
    78   40   41 1    
    79   40   42 1    
    80   40  102 1    
    81   41  103 1    
    82   41  104 1    
    83   41  105 1    
    84   42   43 am   BACKBONE|DICT|INTERRES
    85   42  106 1    
    86   43   44 2    
    87   43   45 1    
    88   45   46 1    
    89   45   49 1    
    90   45  107 1    
    91   46   47 1    
    92   46  108 1    
    93   46  109 1    
    94   47   48 1    
    95   48  110 1    
    96   48  111 1    
    97   49   50 am   BACKBONE|DICT|INTERRES
    98   49  112 1    
    99   50   51 2    
   100   50   52 1    
   101   52   53 1    
   102   52   54 1    
   103   52  113 1    
   104   53  114 1    
   105   53  115 1    
   106   53  116 1    
   107   54   55 am   BACKBONE|DICT|INTERRES
   108   54  117 1    
   109   55   56 2    
   110   55   57 1    
   111   57   58 1    
   112   57   59 1    
   113   57  118 1    
   114   58  119 1    
   115   58  120 1    
   116   58  121 1    
   117   59   60 am   BACKBONE|DICT|INTERRES
   118   59  122 1    
   119   60   61 2    
   120   60   62 1    
   121   62   63 1    
   122   62   64 1    
   123   62  123 1    
   124   63  124 1    
   125   63  125 1    
   126   63  126 1    
   127   64   65 am   BACKBONE|DICT|INTERRES
   128   64  127 1    
   129   65   66 2    
@<TRIPOS>SUBSTRUCTURE
     1 UNK         1 GROUP             0       ****    0 ROOT    
