@<TRIPOS>MOLECULE
3R135
127   129    1
SMALL
USER_CHARGES


@<TRIPOS>ATOM
      1 CA        -83.7812   26.7004  -76.4888 C.3       0 UNK        -0.1998 
      2 C         -82.4760   27.3717  -76.0916 C.2       0 UNK         0.4909 
      3 O         -81.6622   27.6883  -76.9596 O.2       0 UNK        -0.5240 
      4 N         -82.2652   27.5931  -74.7868 N.am      1 UNK        -0.4739 
      5 CA        -81.0680   28.2412  -74.2403 C.3       1 UNK         0.0864 
      6 C6        -81.2353   28.5903  -72.7420 C.3       11 UNK        -0.0881 
      7 S7        -80.2589   30.0616  -72.2865 S.3       11 UNK        -0.2682 
      8 C8        -79.4952   29.5423  -70.7194 C.3       11 UNK         0.0289 
      9 C9        -78.2771   28.6517  -70.9236 C.ar      11 UNK        -0.0687 
     10 C10       -78.3221   27.2958  -70.5843 C.ar      11 UNK        -0.0823 
     11 C11       -77.1773   26.4968  -70.6834 C.ar      11 UNK        -0.0830 
     12 C12       -75.9804   27.0703  -71.1295 C.ar      11 UNK        -0.1021 
     13 C13       -75.9277   28.4194  -71.4924 C.ar      11 UNK        -0.0753 
     14 C14       -77.0812   29.2026  -71.3928 C.ar      11 UNK        -0.0933 
     15 C15       -74.6264   29.0312  -71.9895 C.3       11 UNK         0.0166 
     16 S16       -73.9687   30.2611  -70.8171 S.3       11 UNK        -0.2615 
     17 C17       -72.2598   30.4926  -71.4194 C.3       11 UNK        -0.0865 
     18 CA        -72.1169   31.6491  -72.4439 C.3       10 UNK         0.0862 
     19 C         -70.6172   31.9901  -72.6650 C.2       10 UNK         0.5551 
     20 N         -70.0988   32.9887  -71.9638 N.am      10 UNK        -0.7319 
     21 O         -69.9142   31.3289  -73.4274 O.2       10 UNK        -0.5018 
     22 N         -72.7965   31.3083  -73.6978 N.am      10 UNK        -0.4509 
     23 C         -72.9544   32.0882  -74.7702 C.2       10 UNK         0.4899 
     24 O         -72.6290   33.2758  -74.8120 O.2       10 UNK        -0.4839 
     25 CA        -73.5801   31.4030  -76.0056 C.3       9 UNK         0.0222 
     26 CB        -73.8639   32.3935  -77.1503 C.3       9 UNK        -0.1966 
     27 N         -72.7594   30.2992  -76.5231 N.am      9 UNK        -0.4218 
     28 C         -72.5853   29.1102  -75.9302 C.2       9 UNK         0.5020 
     29 O         -73.0969   28.8077  -74.8485 O.2       9 UNK        -0.5274 
     30 CA        -71.6587   28.1067  -76.6399 C.3       8 UNK         0.0270 
     31 CB        -70.1848   28.4880  -76.4199 C.3       8 UNK        -0.1976 
     32 N         -71.8805   26.7554  -76.1201 N.am      8 UNK        -0.4313 
     33 C         -72.9582   26.0117  -76.3960 C.2       8 UNK         0.5041 
     34 O         -73.7595   26.2739  -77.2974 O.2       8 UNK        -0.5577 
     35 CA        -73.1832   24.8016  -75.4779 C.3       7 UNK         0.0284 
     36 CB        -73.5269   25.2671  -74.0489 C.3       7 UNK        -0.1958 
     37 N         -74.2991   24.0003  -75.9698 N.am      7 UNK        -0.4454 
     38 C         -74.2681   22.6954  -76.2595 C.2       7 UNK         0.5089 
     39 O         -73.2583   21.9926  -76.1823 O.2       7 UNK        -0.5125 
     40 CA        -75.6196   22.0814  -76.6723 C.3       6 UNK         0.0408 
     41 CB        -75.5777   20.5491  -76.8517 C.3       6 UNK        -0.1791 
     42 N         -76.6820   22.4935  -75.7483 N.am      6 UNK        -0.4762 
     43 C         -76.7973   22.2047  -74.4413 C.2       6 UNK         0.5007 
     44 O         -76.0978   21.3809  -73.8510 O.2       6 UNK        -0.5032 
     45 CA        -77.8742   22.9893  -73.6555 C.3       5 UNK         0.0783 
     46 C46       -77.2611   24.2439  -72.9853 C.3       11 UNK        -0.0857 
     47 S47       -76.3941   23.8932  -71.4224 S.3       11 UNK        -0.2512 
     48 C48       -77.2428   25.0267  -70.2691 C.3       11 UNK         0.0225 
     49 N         -79.0128   23.3767  -74.4929 N.am      5 UNK        -0.4615 
     50 C         -79.8729   22.5405  -75.0870 C.2       4 UNK         0.5053 
     51 O         -79.8711   21.3202  -74.9262 O.2       4 UNK        -0.5105 
     52 CA        -80.8883   23.1816  -76.0460 C.3       4 UNK         0.0263 
     53 CB        -82.1449   23.6317  -75.2847 C.3       4 UNK        -0.1981 
     54 N         -80.3057   24.3155  -76.7734 N.am      4 UNK        -0.4224 
     55 C         -79.4530   24.1876  -77.8017 C.2       3 UNK         0.4895 
     56 O         -79.1465   23.1068  -78.3047 O.2       3 UNK        -0.5091 
     57 CA        -78.8054   25.4724  -78.3466 C.3       3 UNK         0.0250 
     58 CB        -79.6846   26.1050  -79.4369 C.3       3 UNK        -0.1996 
     59 N         -78.5219   26.4586  -77.3002 N.am      3 UNK        -0.4254 
     60 C         -77.5628   26.3143  -76.3722 C.2       2 UNK         0.5004 
     61 O         -76.8074   25.3451  -76.3218 O.2       2 UNK        -0.5226 
     62 CA        -77.4522   27.4028  -75.2877 C.3       2 UNK         0.0269 
     63 CB        -76.4442   28.4810  -75.7098 C.3       2 UNK        -0.1926 
     64 N         -78.7278   28.0380  -74.9456 N.am      2 UNK        -0.4687 
     65 C         -79.8086   27.3898  -74.4918 C.2       1 UNK         0.5165 
     66 O         -79.8485   26.1708  -74.3039 O.2       1 UNK        -0.5079 
     67 H67       -84.4614   27.4340  -76.9203 H         1 UNK         0.0900 
     68 H68       -84.2747   26.2353  -75.6356 H         1 UNK         0.0900 
     69 H69       -83.5964   25.9299  -77.2368 H         1 UNK         0.0900 
     70 H70       -82.9505   27.2861  -74.1115 H         1 UNK         0.2959 
     71 H71       -80.9619   29.1738  -74.8002 H         1 UNK         0.1079 
     72 H72       -80.9888   27.7410  -72.1011 H         1 UNK         0.0837 
     73 H73       -82.2766   28.8331  -72.5236 H         1 UNK         0.0837 
     74 H74       -79.1878   30.4354  -70.1734 H         1 UNK         0.0685 
     75 H75       -80.2420   29.0510  -70.0936 H         1 UNK         0.0685 
     76 H76       -79.2451   26.8681  -70.2173 H         1 UNK         0.1434 
     77 H77       -75.0880   26.4633  -71.1961 H         1 UNK         0.1329 
     78 H78       -77.0406   30.2507  -71.6563 H         1 UNK         0.1335 
     79 H79       -73.8813   28.2538  -72.1663 H         1 UNK         0.0680 
     80 H80       -74.8105   29.5133  -72.9491 H         1 UNK         0.0680 
     81 H81       -71.8807   29.5564  -71.8346 H         1 UNK         0.1032 
     82 H82       -71.6462   30.6930  -70.5387 H         1 UNK         0.1032 
     83 H83       -72.6111   32.5351  -72.0402 H         1 UNK         0.0461 
     84 H84       -70.6654   33.5290  -71.3283 H         1 UNK         0.3453 
     85 H85       -69.1232   33.2149  -72.0803 H         1 UNK         0.3453 
     86 H86       -73.0233   30.3250  -73.8249 H         1 UNK         0.2984 
     87 H87       -74.5393   30.9898  -75.6868 H         1 UNK         0.0554 
     88 H88       -74.3775   31.9066  -77.9795 H         1 UNK         0.0847 
     89 H89       -72.9467   32.8393  -77.5372 H         1 UNK         0.0847 
     90 H90       -74.5044   33.2090  -76.8114 H         1 UNK         0.0847 
     91 H91       -72.2694   30.4781  -77.3880 H         1 UNK         0.3141 
     92 H92       -71.8778   28.1182  -77.7099 H         1 UNK         0.0743 
     93 H93       -69.5140   27.7758  -76.9009 H         1 UNK         0.0784 
     94 H94       -69.9648   29.4704  -76.8397 H         1 UNK         0.0784 
     95 H95       -69.9311   28.5261  -75.3593 H         1 UNK         0.0784 
     96 H96       -71.3000   26.4824  -75.3407 H         1 UNK         0.3213 
     97 H97       -72.2646   24.2114  -75.4581 H         1 UNK         0.0855 
     98 H98       -72.6955   25.8046  -73.5920 H         1 UNK         0.0814 
     99 H99       -73.7590   24.4219  -73.4003 H         1 UNK         0.0814 
    100 H100      -74.3870   25.9387  -74.0418 H         1 UNK         0.0814 
    101 H101      -75.1611   24.5172  -76.1432 H         1 UNK         0.3105 
    102 H102      -75.8745   22.5183  -77.6390 H         1 UNK         0.0547 
    103 H103      -74.8782   20.2718  -77.6410 H         1 UNK         0.0837 
    104 H104      -75.2566   20.0379  -75.9441 H         1 UNK         0.0837 
    105 H105      -76.5552   20.1565  -77.1312 H         1 UNK         0.0837 
    106 H106      -77.2744   23.2378  -76.0967 H         1 UNK         0.3020 
    107 H107      -78.2623   22.3243  -72.8807 H         1 UNK         0.1245 
    108 H108      -78.0490   24.9674  -72.7736 H         1 UNK         0.0781 
    109 H109      -76.5693   24.7555  -73.6553 H         1 UNK         0.0781 
    110 H110      -76.7922   24.9227  -69.2814 H         1 UNK         0.0836 
    111 H111      -78.2795   24.7008  -70.1700 H         1 UNK         0.0836 
    112 H112      -79.1599   24.3745  -74.6130 H         1 UNK         0.3022 
    113 H113      -81.1874   22.4188  -76.7683 H         1 UNK         0.0747 
    114 H114      -82.9232   23.9603  -75.9717 H         1 UNK         0.0793 
    115 H115      -82.5620   22.8096  -74.7013 H         1 UNK         0.0793 
    116 H116      -81.9338   24.4470  -74.5920 H         1 UNK         0.0793 
    117 H117      -80.4703   25.2383  -76.3938 H         1 UNK         0.3047 
    118 H118      -77.8545   25.1903  -78.8046 H         1 UNK         0.0822 
    119 H119      -79.2117   26.9884  -79.8660 H         1 UNK         0.0807 
    120 H120      -80.6612   26.3997  -79.0524 H         1 UNK         0.0807 
    121 H121      -79.8566   25.4019  -80.2530 H         1 UNK         0.0807 
    122 H122      -79.1279   27.2669  -77.2540 H         1 UNK         0.2946 
    123 H123      -77.0750   26.9263  -74.3811 H         1 UNK         0.1144 
    124 H124      -76.7805   29.0318  -76.5888 H         1 UNK         0.0793 
    125 H125      -75.4814   28.0322  -75.9562 H         1 UNK         0.0793 
    126 H126      -76.2687   29.1971  -74.9073 H         1 UNK         0.0793 
    127 H127      -78.7761   29.0401  -75.0618 H         1 UNK         0.2896 
@<TRIPOS>BOND
     1    1    2 1    
     2    1   67 1    
     3    1   68 1    
     4    1   69 1    
     5    2    3 2    
     6    2    4 am   BACKBONE|DICT|INTERRES
     7    4    5 1    
     8    4   70 1    
     9    5    6 1    
    10    5   65 1    
    11    5   71 1    
    12    6    7 1    
    13    6   72 1    
    14    6   73 1    
    15    7    8 1    
    16    8    9 1    
    17    8   74 1    
    18    8   75 1    
    19    9   10 ar   
    20    9   14 ar   
    21   10   11 ar   
    22   10   76 1    
    23   11   12 ar   
    24   11   48 1    
    25   12   13 ar   
    26   12   77 1    
    27   13   14 ar   
    28   13   15 1    
    29   14   78 1    
    30   15   16 1    
    31   15   79 1    
    32   15   80 1    
    33   16   17 1    
    34   17   18 1    
    35   17   81 1    
    36   17   82 1    
    37   18   19 1    
    38   18   22 1    
    39   18   83 1    
    40   19   20 am   BACKBONE|DICT|INTERRES
    41   19   21 2    
    42   20   84 1    
    43   20   85 1    
    44   22   23 am   BACKBONE|DICT|INTERRES
    45   22   86 1    
    46   23   24 2    
    47   23   25 1    
    48   25   26 1    
    49   25   27 1    
    50   25   87 1    
    51   26   88 1    
    52   26   89 1    
    53   26   90 1    
    54   27   28 am   BACKBONE|DICT|INTERRES
    55   27   91 1    
    56   28   29 2    
    57   28   30 1    
    58   30   31 1    
    59   30   32 1    
    60   30   92 1    
    61   31   93 1    
    62   31   94 1    
    63   31   95 1    
    64   32   33 am   BACKBONE|DICT|INTERRES
    65   32   96 1    
    66   33   34 2    
    67   33   35 1    
    68   35   36 1    
    69   35   37 1    
    70   35   97 1    
    71   36   98 1    
    72   36   99 1    
    73   36  100 1    
    74   37   38 am   BACKBONE|DICT|INTERRES
    75   37  101 1    
    76   38   39 2    
    77   38   40 1    
    78   40   41 1    
    79   40   42 1    
    80   40  102 1    
    81   41  103 1    
    82   41  104 1    
    83   41  105 1    
    84   42   43 am   BACKBONE|DICT|INTERRES
    85   42  106 1    
    86   43   44 2    
    87   43   45 1    
    88   45   46 1    
    89   45   49 1    
    90   45  107 1    
    91   46   47 1    
    92   46  108 1    
    93   46  109 1    
    94   47   48 1    
    95   48  110 1    
    96   48  111 1    
    97   49   50 am   BACKBONE|DICT|INTERRES
    98   49  112 1    
    99   50   51 2    
   100   50   52 1    
   101   52   53 1    
   102   52   54 1    
   103   52  113 1    
   104   53  114 1    
   105   53  115 1    
   106   53  116 1    
   107   54   55 am   BACKBONE|DICT|INTERRES
   108   54  117 1    
   109   55   56 2    
   110   55   57 1    
   111   57   58 1    
   112   57   59 1    
   113   57  118 1    
   114   58  119 1    
   115   58  120 1    
   116   58  121 1    
   117   59   60 am   BACKBONE|DICT|INTERRES
   118   59  122 1    
   119   60   61 2    
   120   60   62 1    
   121   62   63 1    
   122   62   64 1    
   123   62  123 1    
   124   63  124 1    
   125   63  125 1    
   126   63  126 1    
   127   64   65 am   BACKBONE|DICT|INTERRES
   128   64  127 1    
   129   65   66 2    
@<TRIPOS>SUBSTRUCTURE
     1 UNK         1 GROUP             0       ****    0 ROOT    
