@<TRIPOS>MOLECULE
3R135
127   129    1
SMALL
USER_CHARGES


@<TRIPOS>ATOM
      1 CA        -76.7638   28.7655  -75.1285 C.3       0 UNK        -0.1998 
      2 C         -78.0942   29.4477  -75.4324 C.2       0 UNK         0.4909 
      3 O         -78.1085   30.4844  -76.0918 O.2       0 UNK        -0.5240 
      4 N         -79.2380   28.9034  -74.9916 N.am      1 UNK        -0.4739 
      5 CA        -79.3933   27.6453  -74.2411 C.3       1 UNK         0.0864 
      6 C6        -80.7607   27.5599  -73.5158 C.3       11 UNK        -0.0881 
      7 S7        -81.1626   29.0621  -72.5552 S.3       11 UNK        -0.2682 
      8 C8        -80.6103   28.6245  -70.8758 C.3       11 UNK         0.0289 
      9 C9        -79.0957   28.4987  -70.7638 C.ar      11 UNK        -0.0687 
     10 C10       -78.5208   27.2853  -70.3743 C.ar      11 UNK        -0.0823 
     11 C11       -77.1355   27.1710  -70.2243 C.ar      11 UNK        -0.0830 
     12 C12       -76.3227   28.2780  -70.4841 C.ar      11 UNK        -0.1021 
     13 C13       -76.8802   29.4940  -70.8894 C.ar      11 UNK        -0.0753 
     14 C14       -78.2700   29.6012  -71.0133 C.ar      11 UNK        -0.0933 
     15 C15       -75.9759   30.6900  -71.1626 C.3       11 UNK         0.0166 
     16 S16       -76.1538   31.3079  -72.8658 S.3       11 UNK        -0.2615 
     17 C17       -74.6281   32.2861  -73.0767 C.3       11 UNK        -0.0865 
     18 CA        -73.7602   31.8200  -74.2881 C.3       10 UNK         0.0862 
     19 C         -72.5429   32.7611  -74.5327 C.2       10 UNK         0.5551 
     20 N         -72.7856   34.0527  -74.7149 N.am      10 UNK        -0.7319 
     21 O         -71.3858   32.3487  -74.5814 O.2       10 UNK        -0.5018 
     22 N         -73.3980   30.3906  -74.2618 N.am      10 UNK        -0.4509 
     23 C         -72.7442   29.7418  -73.2866 C.2       10 UNK         0.4899 
     24 O         -72.4069   30.2516  -72.2175 O.2       10 UNK        -0.4839 
     25 CA        -72.4073   28.2591  -73.5352 C.3       9 UNK         0.0222 
     26 CB        -73.4884   27.3580  -72.9234 C.3       9 UNK        -0.1966 
     27 N         -72.2439   27.9255  -74.9526 N.am      9 UNK        -0.4218 
     28 C         -71.2058   28.3253  -75.7047 C.2       9 UNK         0.5020 
     29 O         -70.2457   28.9524  -75.2551 O.2       9 UNK        -0.5274 
     30 CA        -71.2112   27.9725  -77.2064 C.3       8 UNK         0.0270 
     31 CB        -70.1878   26.8624  -77.5008 C.3       8 UNK        -0.1976 
     32 N         -72.5131   27.5654  -77.7393 N.am      8 UNK        -0.4313 
     33 C         -73.6130   28.3280  -77.7950 C.2       8 UNK         0.5041 
     34 O         -73.6591   29.4983  -77.4140 O.2       8 UNK        -0.5577 
     35 CA        -74.8926   27.6479  -78.3170 C.3       7 UNK         0.0284 
     36 CB        -75.0436   27.8835  -79.8283 C.3       7 UNK        -0.1958 
     37 N         -74.9868   26.2054  -78.0380 N.am      7 UNK        -0.4454 
     38 C         -74.9070   25.6379  -76.8253 C.2       7 UNK         0.5089 
     39 O         -74.6303   26.2640  -75.8011 O.2       7 UNK        -0.5125 
     40 CA        -75.1898   24.1258  -76.7663 C.3       6 UNK         0.0408 
     41 CB        -73.9087   23.3030  -77.0070 C.3       6 UNK        -0.1791 
     42 N         -75.8830   23.7545  -75.5237 N.am      6 UNK        -0.4762 
     43 C         -75.3899   23.6605  -74.2770 C.2       6 UNK         0.5007 
     44 O         -74.1907   23.6738  -73.9984 O.2       6 UNK        -0.5032 
     45 CA        -76.4239   23.5382  -73.1372 C.3       5 UNK         0.0783 
     46 C46       -76.6095   24.8946  -72.4086 C.3       11 UNK        -0.0857 
     47 S47       -75.4440   25.1113  -71.0253 S.3       11 UNK        -0.2512 
     48 C48       -76.5179   25.8579  -69.7587 C.3       11 UNK         0.0225 
     49 N         -77.7195   23.0319  -73.6035 N.am      5 UNK        -0.4615 
     50 C         -78.0236   21.7352  -73.7313 C.2       4 UNK         0.5053 
     51 O         -77.2117   20.8285  -73.5461 O.2       4 UNK        -0.5105 
     52 CA        -79.4698   21.3716  -74.0965 C.3       4 UNK         0.0263 
     53 CB        -80.3137   21.1795  -72.8227 C.3       4 UNK        -0.1981 
     54 N         -80.1171   22.3452  -74.9834 N.am      4 UNK        -0.4224 
     55 C         -81.0769   22.0213  -75.8644 C.2       3 UNK         0.4895 
     56 O         -81.5062   20.8762  -76.0143 O.2       3 UNK        -0.5091 
     57 CA        -81.6826   23.1474  -76.7256 C.3       3 UNK         0.0250 
     58 CB        -83.0268   23.6049  -76.1354 C.3       3 UNK        -0.1996 
     59 N         -80.8155   24.3149  -76.8910 N.am      3 UNK        -0.4254 
     60 C         -79.6363   24.3201  -77.5259 C.2       2 UNK         0.5004 
     61 O         -79.1607   23.3394  -78.0973 O.2       2 UNK        -0.5226 
     62 CA        -78.8287   25.6290  -77.4993 C.3       2 UNK         0.0269 
     63 CB        -78.8710   26.3242  -78.8692 C.3       2 UNK        -0.1926 
     64 N         -79.2088   26.5958  -76.4627 N.am      2 UNK        -0.4687 
     65 C         -79.1782   26.4024  -75.1344 C.2       1 UNK         0.5165 
     66 O         -78.9801   25.3029  -74.6155 O.2       1 UNK        -0.5079 
     67 H67       -76.7047   27.7974  -75.6188 H         1 UNK         0.0900 
     68 H68       -75.9330   29.3725  -75.4871 H         1 UNK         0.0900 
     69 H69       -76.6281   28.6235  -74.0570 H         1 UNK         0.0900 
     70 H70       -80.1007   29.3992  -75.1670 H         1 UNK         0.2959 
     71 H71       -78.6205   27.6108  -73.4714 H         1 UNK         0.1079 
     72 H72       -80.7892   26.6923  -72.8533 H         1 UNK         0.0837 
     73 H73       -81.5670   27.4138  -74.2373 H         1 UNK         0.0837 
     74 H74       -81.1074   27.7043  -70.5649 H         1 UNK         0.0685 
     75 H75       -80.9471   29.3999  -70.1865 H         1 UNK         0.0685 
     76 H76       -79.1544   26.4328  -70.1703 H         1 UNK         0.1434 
     77 H77       -75.2521   28.1887  -70.3647 H         1 UNK         0.1329 
     78 H78       -78.7097   30.5427  -71.3132 H         1 UNK         0.1335 
     79 H79       -74.9336   30.4193  -70.9881 H         1 UNK         0.0680 
     80 H80       -76.2118   31.4920  -70.4621 H         1 UNK         0.0680 
     81 H81       -74.0427   32.2764  -72.1564 H         1 UNK         0.1032 
     82 H82       -74.9408   33.3228  -73.2080 H         1 UNK         0.1032 
     83 H83       -74.3754   31.9179  -75.1836 H         1 UNK         0.0461 
     84 H84       -72.0100   34.6749  -74.8814 H         1 UNK         0.3453 
     85 H85       -73.7251   34.4175  -74.7106 H         1 UNK         0.3453 
     86 H86       -73.5664   29.8950  -75.1278 H         1 UNK         0.2984 
     87 H87       -71.4643   28.0430  -73.0287 H         1 UNK         0.0554 
     88 H88       -73.2726   26.3023  -73.0906 H         1 UNK         0.0847 
     89 H89       -74.4748   27.5645  -73.3398 H         1 UNK         0.0847 
     90 H90       -73.5503   27.5077  -71.8458 H         1 UNK         0.0847 
     91 H91       -72.9938   27.3902  -75.3817 H         1 UNK         0.3141 
     92 H92       -70.9055   28.8721  -77.7446 H         1 UNK         0.0743 
     93 H93       -70.4530   25.9278  -77.0046 H         1 UNK         0.0784 
     94 H94       -70.1087   26.6666  -78.5704 H         1 UNK         0.0784 
     95 H95       -69.1931   27.1447  -77.1525 H         1 UNK         0.0784 
     96 H96       -72.5888   26.6131  -78.0652 H         1 UNK         0.3213 
     97 H97       -75.7354   28.1296  -77.8189 H         1 UNK         0.0855 
     98 H98       -74.2482   27.3978  -80.3949 H         1 UNK         0.0814 
     99 H99       -75.0057   28.9486  -80.0623 H         1 UNK         0.0814 
    100 H100      -75.9978   27.5084  -80.1984 H         1 UNK         0.0814 
    101 H101      -75.1889   25.6135  -78.8316 H         1 UNK         0.3105 
    102 H102      -75.8878   23.8831  -77.5689 H         1 UNK         0.0547 
    103 H103      -74.0916   22.2357  -76.8834 H         1 UNK         0.0837 
    104 H104      -73.1036   23.5875  -76.3288 H         1 UNK         0.0837 
    105 H105      -73.5366   23.4521  -78.0211 H         1 UNK         0.0837 
    106 H106      -76.8889   23.7088  -75.5955 H         1 UNK         0.3020 
    107 H107      -76.0212   22.8133  -72.4252 H         1 UNK         0.1245 
    108 H108      -77.6191   24.9585  -71.9998 H         1 UNK         0.0781 
    109 H109      -76.5203   25.7446  -73.0890 H         1 UNK         0.0781 
    110 H110      -75.9282   26.0403  -68.8593 H         1 UNK         0.0836 
    111 H111      -77.2891   25.1392  -69.4769 H         1 UNK         0.0836 
    112 H112      -78.4122   23.7493  -73.7951 H         1 UNK         0.3022 
    113 H113      -79.4124   20.4112  -74.6142 H         1 UNK         0.0747 
    114 H114      -81.3050   20.7912  -73.0571 H         1 UNK         0.0793 
    115 H115      -79.8423   20.4682  -72.1429 H         1 UNK         0.0793 
    116 H116      -80.4408   22.1169  -72.2799 H         1 UNK         0.0793 
    117 H117      -79.8133   23.3093  -74.9291 H         1 UNK         0.3047 
    118 H118      -81.8680   22.7299  -77.7177 H         1 UNK         0.0822 
    119 H119      -83.5160   24.3362  -76.7791 H         1 UNK         0.0807 
    120 H120      -82.9033   24.0530  -75.1485 H         1 UNK         0.0807 
    121 H121      -83.7126   22.7632  -76.0270 H         1 UNK         0.0807 
    122 H122      -81.1207   25.1742  -76.4586 H         1 UNK         0.2946 
    123 H123      -77.7971   25.3445  -77.3004 H         1 UNK         0.1144 
    124 H124      -78.2109   27.1913  -78.8957 H         1 UNK         0.0793 
    125 H125      -79.8782   26.6603  -79.1187 H         1 UNK         0.0793 
    126 H126      -78.5466   25.6494  -79.6628 H         1 UNK         0.0793 
    127 H127      -79.4191   27.5308  -76.7836 H         1 UNK         0.2896 
@<TRIPOS>BOND
     1    1    2 1    
     2    1   67 1    
     3    1   68 1    
     4    1   69 1    
     5    2    3 2    
     6    2    4 am   BACKBONE|DICT|INTERRES
     7    4    5 1    
     8    4   70 1    
     9    5    6 1    
    10    5   65 1    
    11    5   71 1    
    12    6    7 1    
    13    6   72 1    
    14    6   73 1    
    15    7    8 1    
    16    8    9 1    
    17    8   74 1    
    18    8   75 1    
    19    9   10 ar   
    20    9   14 ar   
    21   10   11 ar   
    22   10   76 1    
    23   11   12 ar   
    24   11   48 1    
    25   12   13 ar   
    26   12   77 1    
    27   13   14 ar   
    28   13   15 1    
    29   14   78 1    
    30   15   16 1    
    31   15   79 1    
    32   15   80 1    
    33   16   17 1    
    34   17   18 1    
    35   17   81 1    
    36   17   82 1    
    37   18   19 1    
    38   18   22 1    
    39   18   83 1    
    40   19   20 am   BACKBONE|DICT|INTERRES
    41   19   21 2    
    42   20   84 1    
    43   20   85 1    
    44   22   23 am   BACKBONE|DICT|INTERRES
    45   22   86 1    
    46   23   24 2    
    47   23   25 1    
    48   25   26 1    
    49   25   27 1    
    50   25   87 1    
    51   26   88 1    
    52   26   89 1    
    53   26   90 1    
    54   27   28 am   BACKBONE|DICT|INTERRES
    55   27   91 1    
    56   28   29 2    
    57   28   30 1    
    58   30   31 1    
    59   30   32 1    
    60   30   92 1    
    61   31   93 1    
    62   31   94 1    
    63   31   95 1    
    64   32   33 am   BACKBONE|DICT|INTERRES
    65   32   96 1    
    66   33   34 2    
    67   33   35 1    
    68   35   36 1    
    69   35   37 1    
    70   35   97 1    
    71   36   98 1    
    72   36   99 1    
    73   36  100 1    
    74   37   38 am   BACKBONE|DICT|INTERRES
    75   37  101 1    
    76   38   39 2    
    77   38   40 1    
    78   40   41 1    
    79   40   42 1    
    80   40  102 1    
    81   41  103 1    
    82   41  104 1    
    83   41  105 1    
    84   42   43 am   BACKBONE|DICT|INTERRES
    85   42  106 1    
    86   43   44 2    
    87   43   45 1    
    88   45   46 1    
    89   45   49 1    
    90   45  107 1    
    91   46   47 1    
    92   46  108 1    
    93   46  109 1    
    94   47   48 1    
    95   48  110 1    
    96   48  111 1    
    97   49   50 am   BACKBONE|DICT|INTERRES
    98   49  112 1    
    99   50   51 2    
   100   50   52 1    
   101   52   53 1    
   102   52   54 1    
   103   52  113 1    
   104   53  114 1    
   105   53  115 1    
   106   53  116 1    
   107   54   55 am   BACKBONE|DICT|INTERRES
   108   54  117 1    
   109   55   56 2    
   110   55   57 1    
   111   57   58 1    
   112   57   59 1    
   113   57  118 1    
   114   58  119 1    
   115   58  120 1    
   116   58  121 1    
   117   59   60 am   BACKBONE|DICT|INTERRES
   118   59  122 1    
   119   60   61 2    
   120   60   62 1    
   121   62   63 1    
   122   62   64 1    
   123   62  123 1    
   124   63  124 1    
   125   63  125 1    
   126   63  126 1    
   127   64   65 am   BACKBONE|DICT|INTERRES
   128   64  127 1    
   129   65   66 2    
@<TRIPOS>SUBSTRUCTURE
     1 UNK         1 GROUP             0       ****    0 ROOT    
