@<TRIPOS>MOLECULE
3R135
127   129    1
SMALL
USER_CHARGES


@<TRIPOS>ATOM
      1 CA        -83.6140   29.5425  -74.1020 C.3       0 UNK        -0.1998 
      2 C         -82.1623   29.0895  -74.0911 C.2       0 UNK         0.4909 
      3 O         -81.2728   29.8730  -74.4217 O.2       0 UNK        -0.5240 
      4 N         -81.9144   27.8275  -73.7147 N.am      1 UNK        -0.4739 
      5 CA        -80.5721   27.2315  -73.6205 C.3       1 UNK         0.0864 
      6 C6        -80.5131   26.0834  -72.5783 C.3       11 UNK        -0.0881 
      7 S7        -81.2695   26.3959  -70.9387 S.3       11 UNK        -0.2682 
      8 C8        -80.8899   28.1398  -70.5373 C.3       11 UNK         0.0289 
      9 C9        -79.4017   28.4715  -70.5416 C.ar      11 UNK        -0.0687 
     10 C10       -78.4767   27.6279  -69.9202 C.ar      11 UNK        -0.0823 
     11 C11       -77.1153   27.9326  -69.9463 C.ar      11 UNK        -0.0830 
     12 C12       -76.6832   29.1185  -70.5463 C.ar      11 UNK        -0.1021 
     13 C13       -77.5912   29.9675  -71.1917 C.ar      11 UNK        -0.0753 
     14 C14       -78.9502   29.6356  -71.1732 C.ar      11 UNK        -0.0933 
     15 C15       -77.1668   31.2374  -71.9370 C.3       11 UNK         0.0166 
     16 S16       -75.3687   31.5335  -72.0982 S.3       11 UNK        -0.2615 
     17 C17       -74.8684   30.2419  -73.2915 C.3       11 UNK        -0.0865 
     18 CA        -73.3226   30.1149  -73.4210 C.3       10 UNK         0.0862 
     19 C         -72.6510   29.2586  -72.3045 C.2       10 UNK         0.5551 
     20 N         -71.5838   28.5202  -72.5897 N.am      10 UNK        -0.7319 
     21 O         -73.0854   29.2665  -71.1566 O.2       10 UNK        -0.5018 
     22 N         -72.9435   29.6595  -74.7664 N.am      10 UNK        -0.4509 
     23 C         -72.2968   30.3919  -75.6813 C.2       10 UNK         0.4899 
     24 O         -72.0400   31.5886  -75.5397 O.2       10 UNK        -0.4839 
     25 CA        -71.8616   29.6733  -76.9767 C.3       9 UNK         0.0222 
     26 CB        -70.6414   30.3446  -77.6423 C.3       9 UNK        -0.1966 
     27 N         -71.6295   28.2300  -76.8250 N.am      9 UNK        -0.4218 
     28 C         -70.7589   27.6192  -76.0024 C.2       9 UNK         0.5020 
     29 O         -70.0371   28.2255  -75.2090 O.2       9 UNK        -0.5274 
     30 CA        -70.7085   26.0780  -76.0371 C.3       8 UNK         0.0270 
     31 CB        -70.4957   25.4837  -74.6321 C.3       8 UNK        -0.1976 
     32 N         -71.9432   25.5257  -76.5931 N.am      8 UNK        -0.4313 
     33 C         -72.0810   24.9539  -77.7968 C.2       8 UNK         0.5041 
     34 O         -71.1417   24.7285  -78.5604 O.2       8 UNK        -0.5577 
     35 CA        -73.5144   24.6005  -78.2434 C.3       7 UNK         0.0284 
     36 CB        -73.7849   23.1013  -78.0412 C.3       7 UNK        -0.1958 
     37 N         -74.5483   25.3814  -77.5527 N.am      7 UNK        -0.4454 
     38 C         -74.7066   26.7088  -77.6812 C.2       7 UNK         0.5089 
     39 O         -74.0446   27.3960  -78.4586 O.2       7 UNK        -0.5125 
     40 CA        -75.7043   27.4083  -76.7374 C.3       6 UNK         0.0408 
     41 CB        -77.0466   27.6016  -77.4473 C.3       6 UNK        -0.1791 
     42 N         -75.9166   26.7059  -75.4665 N.am      6 UNK        -0.4762 
     43 C         -74.9455   26.4347  -74.5813 C.2       6 UNK         0.5007 
     44 O         -73.7887   26.8355  -74.7170 O.2       6 UNK        -0.5032 
     45 CA        -75.2899   25.5527  -73.3637 C.3       5 UNK         0.0783 
     46 C46       -75.5053   26.4559  -72.1330 C.3       11 UNK        -0.0857 
     47 S47       -75.8634   25.5509  -70.5873 S.3       11 UNK        -0.2512 
     48 C48       -76.0977   26.9339  -69.4162 C.3       11 UNK         0.0225 
     49 N         -76.4175   24.6310  -73.5560 N.am      5 UNK        -0.4615 
     50 C         -76.5743   23.7302  -74.5342 C.2       4 UNK         0.5053 
     51 O         -75.8474   23.6555  -75.5250 O.2       4 UNK        -0.5105 
     52 CA        -77.7227   22.7269  -74.3752 C.3       4 UNK         0.0263 
     53 CB        -78.2787   22.6109  -72.9390 C.3       4 UNK        -0.1981 
     54 N         -78.8054   23.0690  -75.2936 N.am      4 UNK        -0.4224 
     55 C         -79.5128   22.1712  -75.9938 C.2       3 UNK         0.4895 
     56 O         -79.2775   20.9616  -75.9779 O.2       3 UNK        -0.5091 
     57 CA        -80.7077   22.6709  -76.8288 C.3       3 UNK         0.0250 
     58 CB        -82.0161   22.0242  -76.3399 C.3       3 UNK        -0.1996 
     59 N         -80.8766   24.1243  -76.8068 N.am      3 UNK        -0.4254 
     60 C         -80.2531   24.9832  -77.6223 C.2       2 UNK         0.5004 
     61 O         -79.4452   24.6496  -78.4885 O.2       2 UNK        -0.5226 
     62 CA        -80.5889   26.4712  -77.4287 C.3       2 UNK         0.0269 
     63 CB        -81.7836   26.8664  -78.3117 C.3       2 UNK        -0.1926 
     64 N         -80.8762   26.8459  -76.0398 N.am      2 UNK        -0.4687 
     65 C         -80.0456   26.7377  -74.9899 C.2       1 UNK         0.5165 
     66 O         -78.9201   26.2375  -75.0641 O.2       1 UNK        -0.5079 
     67 H67       -83.7466   30.3896  -73.4296 H         1 UNK         0.0900 
     68 H68       -83.9024   29.8551  -75.1052 H         1 UNK         0.0900 
     69 H69       -84.2913   28.7495  -73.7852 H         1 UNK         0.0900 
     70 H70       -82.6788   27.2285  -73.4343 H         1 UNK         0.2959 
     71 H71       -79.8723   28.0062  -73.3034 H         1 UNK         0.1079 
     72 H72       -80.9898   25.1853  -72.9763 H         1 UNK         0.0837 
     73 H73       -79.4708   25.8128  -72.3995 H         1 UNK         0.0837 
     74 H74       -81.4370   28.7944  -71.2149 H         1 UNK         0.0685 
     75 H75       -81.2810   28.3512  -69.5414 H         1 UNK         0.0685 
     76 H76       -78.8099   26.7110  -69.4535 H         1 UNK         0.1434 
     77 H77       -75.6263   29.3396  -70.5512 H         1 UNK         0.1329 
     78 H78       -79.6613   30.2858  -71.6655 H         1 UNK         0.1335 
     79 H79       -77.6003   32.0946  -71.4200 H         1 UNK         0.0680 
     80 H80       -77.6040   31.2288  -72.9368 H         1 UNK         0.0680 
     81 H81       -75.3210   29.2850  -73.0333 H         1 UNK         0.1032 
     82 H82       -75.3022   30.5211  -74.2530 H         1 UNK         0.1032 
     83 H83       -72.9018   31.1100  -73.2681 H         1 UNK         0.0461 
     84 H84       -71.1564   27.9792  -71.8559 H         1 UNK         0.3453 
     85 H85       -71.1699   28.5302  -73.5144 H         1 UNK         0.3453 
     86 H86       -73.0943   28.6698  -74.9387 H         1 UNK         0.2984 
     87 H87       -72.7030   29.7690  -77.6641 H         1 UNK         0.0554 
     88 H88       -70.8520   31.3845  -77.8948 H         1 UNK         0.0847 
     89 H89       -70.3664   29.8398  -78.5684 H         1 UNK         0.0847 
     90 H90       -69.7705   30.3394  -76.9859 H         1 UNK         0.0847 
     91 H91       -72.2073   27.6480  -77.4212 H         1 UNK         0.3141 
     92 H92       -69.8540   25.8022  -76.6580 H         1 UNK         0.0743 
     93 H93       -69.5518   25.8188  -74.2003 H         1 UNK         0.0784 
     94 H94       -71.2918   25.7765  -73.9461 H         1 UNK         0.0784 
     95 H95       -70.4652   24.3946  -74.6639 H         1 UNK         0.0784 
     96 H96       -72.7767   25.7084  -76.0433 H         1 UNK         0.3213 
     97 H97       -73.5877   24.8206  -79.3107 H         1 UNK         0.0855 
     98 H98       -73.6999   22.8143  -76.9923 H         1 UNK         0.0814 
     99 H99       -73.0712   22.4971  -78.6028 H         1 UNK         0.0814 
    100 H100      -74.7829   22.8270  -78.3835 H         1 UNK         0.0814 
    101 H101      -75.1174   24.8810  -76.8732 H         1 UNK         0.3105 
    102 H102      -75.2978   28.3942  -76.5025 H         1 UNK         0.0547 
    103 H103      -77.7509   28.1499  -76.8217 H         1 UNK         0.0837 
    104 H104      -76.9246   28.1670  -78.3722 H         1 UNK         0.0837 
    105 H105      -77.4890   26.6398  -77.7071 H         1 UNK         0.0837 
    106 H106      -76.8547   26.3621  -75.2832 H         1 UNK         0.3020 
    107 H107      -74.4104   24.9322  -73.1791 H         1 UNK         0.1245 
    108 H108      -76.3383   27.1285  -72.3413 H         1 UNK         0.0781 
    109 H109      -74.6290   27.0805  -71.9537 H         1 UNK         0.0781 
    110 H110      -75.1367   27.4196  -69.2382 H         1 UNK         0.0836 
    111 H111      -76.4284   26.5409  -68.4537 H         1 UNK         0.0836 
    112 H112      -77.0734   24.6076  -72.7893 H         1 UNK         0.3022 
    113 H113      -77.2967   21.7580  -74.6446 H         1 UNK         0.0747 
    114 H114      -78.9905   21.7884  -72.8656 H         1 UNK         0.0793 
    115 H115      -77.4837   22.4061  -72.2203 H         1 UNK         0.0793 
    116 H116      -78.7955   23.5158  -72.6206 H         1 UNK         0.0793 
    117 H117      -79.0045   24.0567  -75.4025 H         1 UNK         0.3047 
    118 H118      -80.5353   22.3487  -77.8582 H         1 UNK         0.0822 
    119 H119      -81.9611   20.9359  -76.3933 H         1 UNK         0.0807 
    120 H120      -82.8641   22.3313  -76.9524 H         1 UNK         0.0807 
    121 H121      -82.2352   22.2883  -75.3045 H         1 UNK         0.0807 
    122 H122      -81.5224   24.4977  -76.1264 H         1 UNK         0.2946 
    123 H123      -79.7293   27.0517  -77.7598 H         1 UNK         0.1144 
    124 H124      -81.9770   27.9382  -78.2619 H         1 UNK         0.0793 
    125 H125      -82.6956   26.3457  -78.0170 H         1 UNK         0.0793 
    126 H126      -81.5931   26.6229  -79.3581 H         1 UNK         0.0793 
    127 H127      -81.7775   27.2668  -75.8662 H         1 UNK         0.2896 
@<TRIPOS>BOND
     1    1    2 1    
     2    1   67 1    
     3    1   68 1    
     4    1   69 1    
     5    2    3 2    
     6    2    4 am   BACKBONE|DICT|INTERRES
     7    4    5 1    
     8    4   70 1    
     9    5    6 1    
    10    5   65 1    
    11    5   71 1    
    12    6    7 1    
    13    6   72 1    
    14    6   73 1    
    15    7    8 1    
    16    8    9 1    
    17    8   74 1    
    18    8   75 1    
    19    9   10 ar   
    20    9   14 ar   
    21   10   11 ar   
    22   10   76 1    
    23   11   12 ar   
    24   11   48 1    
    25   12   13 ar   
    26   12   77 1    
    27   13   14 ar   
    28   13   15 1    
    29   14   78 1    
    30   15   16 1    
    31   15   79 1    
    32   15   80 1    
    33   16   17 1    
    34   17   18 1    
    35   17   81 1    
    36   17   82 1    
    37   18   19 1    
    38   18   22 1    
    39   18   83 1    
    40   19   20 am   BACKBONE|DICT|INTERRES
    41   19   21 2    
    42   20   84 1    
    43   20   85 1    
    44   22   23 am   BACKBONE|DICT|INTERRES
    45   22   86 1    
    46   23   24 2    
    47   23   25 1    
    48   25   26 1    
    49   25   27 1    
    50   25   87 1    
    51   26   88 1    
    52   26   89 1    
    53   26   90 1    
    54   27   28 am   BACKBONE|DICT|INTERRES
    55   27   91 1    
    56   28   29 2    
    57   28   30 1    
    58   30   31 1    
    59   30   32 1    
    60   30   92 1    
    61   31   93 1    
    62   31   94 1    
    63   31   95 1    
    64   32   33 am   BACKBONE|DICT|INTERRES
    65   32   96 1    
    66   33   34 2    
    67   33   35 1    
    68   35   36 1    
    69   35   37 1    
    70   35   97 1    
    71   36   98 1    
    72   36   99 1    
    73   36  100 1    
    74   37   38 am   BACKBONE|DICT|INTERRES
    75   37  101 1    
    76   38   39 2    
    77   38   40 1    
    78   40   41 1    
    79   40   42 1    
    80   40  102 1    
    81   41  103 1    
    82   41  104 1    
    83   41  105 1    
    84   42   43 am   BACKBONE|DICT|INTERRES
    85   42  106 1    
    86   43   44 2    
    87   43   45 1    
    88   45   46 1    
    89   45   49 1    
    90   45  107 1    
    91   46   47 1    
    92   46  108 1    
    93   46  109 1    
    94   47   48 1    
    95   48  110 1    
    96   48  111 1    
    97   49   50 am   BACKBONE|DICT|INTERRES
    98   49  112 1    
    99   50   51 2    
   100   50   52 1    
   101   52   53 1    
   102   52   54 1    
   103   52  113 1    
   104   53  114 1    
   105   53  115 1    
   106   53  116 1    
   107   54   55 am   BACKBONE|DICT|INTERRES
   108   54  117 1    
   109   55   56 2    
   110   55   57 1    
   111   57   58 1    
   112   57   59 1    
   113   57  118 1    
   114   58  119 1    
   115   58  120 1    
   116   58  121 1    
   117   59   60 am   BACKBONE|DICT|INTERRES
   118   59  122 1    
   119   60   61 2    
   120   60   62 1    
   121   62   63 1    
   122   62   64 1    
   123   62  123 1    
   124   63  124 1    
   125   63  125 1    
   126   63  126 1    
   127   64   65 am   BACKBONE|DICT|INTERRES
   128   64  127 1    
   129   65   66 2    
@<TRIPOS>SUBSTRUCTURE
     1 UNK         1 GROUP             0       ****    0 ROOT    
