@<TRIPOS>MOLECULE
3R135
127   129    1
SMALL
USER_CHARGES


@<TRIPOS>ATOM
      1 CA        -82.3348   23.1589  -72.6614 C.3       0 UNK        -0.1998 
      2 C         -82.2401   24.3774  -73.5662 C.2       0 UNK         0.4909 
      3 O         -82.8903   24.4118  -74.6121 O.2       0 UNK        -0.5240 
      4 N         -81.4357   25.3768  -73.1748 N.am      1 UNK        -0.4739 
      5 CA        -81.2055   26.6232  -73.9173 C.3       1 UNK         0.0864 
      6 C6        -80.2518   27.5859  -73.1717 C.3       11 UNK        -0.0881 
      7 S7        -80.8916   28.0837  -71.5382 S.3       11 UNK        -0.2682 
      8 C8        -79.9016   29.5813  -71.2095 C.3       11 UNK         0.0289 
      9 C9        -78.4053   29.3145  -71.3115 C.ar      11 UNK        -0.0687 
     10 C10       -77.8024   28.3725  -70.4745 C.ar      11 UNK        -0.0823 
     11 C11       -76.4454   28.0670  -70.6086 C.ar      11 UNK        -0.0830 
     12 C12       -75.6792   28.7421  -71.5632 C.ar      11 UNK        -0.1021 
     13 C13       -76.2652   29.7056  -72.3902 C.ar      11 UNK        -0.0753 
     14 C14       -77.6294   29.9846  -72.2620 C.ar      11 UNK        -0.0933 
     15 C15       -75.4434   30.4172  -73.4540 C.3       11 UNK         0.0166 
     16 S16       -74.7533   31.9888  -72.8491 S.3       11 UNK        -0.2615 
     17 C17       -73.2215   31.4388  -72.0211 C.3       11 UNK        -0.0865 
     18 CA        -71.9632   31.6633  -72.8993 C.3       10 UNK         0.0862 
     19 C         -70.6739   31.3228  -72.1067 C.2       10 UNK         0.5551 
     20 N         -69.9329   32.3267  -71.6586 N.am      10 UNK        -0.7319 
     21 O         -70.3716   30.1584  -71.8548 O.2       10 UNK        -0.5018 
     22 N         -72.0420   30.9003  -74.1515 N.am      10 UNK        -0.4509 
     23 C         -71.2869   31.1099  -75.2358 C.2       10 UNK         0.4899 
     24 O         -70.4585   32.0172  -75.3307 O.2       10 UNK        -0.4839 
     25 CA        -71.5232   30.1444  -76.4155 C.3       9 UNK         0.0222 
     26 CB        -70.4332   30.2383  -77.5048 C.3       9 UNK        -0.1966 
     27 N         -71.7213   28.7535  -75.9855 N.am      9 UNK        -0.4218 
     28 C         -70.8454   27.9778  -75.3214 C.2       9 UNK         0.5020 
     29 O         -69.7095   28.3360  -75.0081 O.2       9 UNK        -0.5274 
     30 CA        -71.3044   26.5614  -74.9222 C.3       8 UNK         0.0270 
     31 CB        -71.6126   26.5103  -73.4159 C.3       8 UNK        -0.1976 
     32 N         -72.4718   26.0930  -75.6750 N.am      8 UNK        -0.4313 
     33 C         -72.4414   25.7353  -76.9693 C.2       8 UNK         0.5041 
     34 O         -71.4022   25.6698  -77.6273 O.2       8 UNK        -0.5577 
     35 CA        -73.7790   25.4180  -77.6691 C.3       7 UNK         0.0284 
     36 CB        -73.9310   23.9018  -77.8700 C.3       7 UNK        -0.1958 
     37 N         -74.9643   25.9329  -76.9769 N.am      7 UNK        -0.4454 
     38 C         -75.2236   27.2290  -76.7413 C.2       7 UNK         0.5089 
     39 O         -74.5019   28.1506  -77.1251 O.2       7 UNK        -0.5125 
     40 CA        -76.4495   27.5521  -75.8641 C.3       6 UNK         0.0408 
     41 CB        -77.6532   27.8872  -76.7513 C.3       6 UNK        -0.1791 
     42 N         -76.8035   26.4905  -74.9099 N.am      6 UNK        -0.4762 
     43 C         -75.9564   25.9950  -73.9919 C.2       6 UNK         0.5007 
     44 O         -74.8146   26.4322  -73.8426 O.2       6 UNK        -0.5032 
     45 CA        -76.3874   24.7566  -73.1719 C.3       5 UNK         0.0783 
     46 C46       -76.7487   25.0985  -71.7034 C.3       11 UNK        -0.0857 
     47 S47       -75.2813   25.5244  -70.6958 S.3       11 UNK        -0.2512 
     48 C48       -75.8248   26.9815  -69.7399 C.3       11 UNK         0.0225 
     49 N         -77.4271   23.9203  -73.7857 N.am      5 UNK        -0.4615 
     50 C         -77.3766   23.3313  -74.9888 C.2       4 UNK         0.5053 
     51 O         -76.5256   23.5791  -75.8435 O.2       4 UNK        -0.5105 
     52 CA        -78.4271   22.2474  -75.2662 C.3       4 UNK         0.0263 
     53 CB        -78.9912   21.5841  -73.9892 C.3       4 UNK        -0.1981 
     54 N         -79.5196   22.7791  -76.0785 N.am      4 UNK        -0.4224 
     55 C         -80.2583   22.0307  -76.9128 C.2       3 UNK         0.4895 
     56 O         -80.0337   20.8376  -77.1250 O.2       3 UNK        -0.5091 
     57 CA        -81.4689   22.6740  -77.6158 C.3       3 UNK         0.0250 
     58 CB        -82.7780   22.0235  -77.1351 C.3       3 UNK        -0.1996 
     59 N         -81.5603   24.1197  -77.4152 N.am      3 UNK        -0.4254 
     60 C         -80.9306   25.0293  -78.1719 C.2       2 UNK         0.5004 
     61 O         -80.2348   24.7439  -79.1467 O.2       2 UNK        -0.5226 
     62 CA        -81.0902   26.5100  -77.7767 C.3       2 UNK         0.0269 
     63 CB        -82.1772   27.1755  -78.6363 C.3       2 UNK        -0.1926 
     64 N         -81.3974   26.7373  -76.3595 N.am      2 UNK        -0.4687 
     65 C         -80.6552   26.3246  -75.3228 C.2       1 UNK         0.5165 
     66 O         -79.5966   25.7008  -75.4355 O.2       1 UNK        -0.5079 
     67 H67       -82.1269   22.2529  -73.2301 H         1 UNK         0.0900 
     68 H68       -81.6295   23.2101  -71.8322 H         1 UNK         0.0900 
     69 H69       -83.3401   23.0776  -72.2493 H         1 UNK         0.0900 
     70 H70       -80.9430   25.3045  -72.2966 H         1 UNK         0.2959 
     71 H71       -82.1737   27.1177  -74.0214 H         1 UNK         0.1079 
     72 H72       -80.0880   28.4895  -73.7629 H         1 UNK         0.0837 
     73 H73       -79.2694   27.1290  -73.0344 H         1 UNK         0.0837 
     74 H74       -80.2060   30.3655  -71.9045 H         1 UNK         0.0685 
     75 H75       -80.1330   29.9483  -70.2087 H         1 UNK         0.0685 
     76 H76       -78.4054   27.8481  -69.7456 H         1 UNK         0.1434 
     77 H77       -74.6348   28.4887  -71.6810 H         1 UNK         0.1329 
     78 H78       -78.0881   30.7155  -72.9138 H         1 UNK         0.1335 
     79 H79       -76.0739   30.6338  -74.3176 H         1 UNK         0.0680 
     80 H80       -74.6481   29.7660  -73.8184 H         1 UNK         0.0680 
     81 H81       -73.1356   32.0053  -71.0918 H         1 UNK         0.1032 
     82 H82       -73.3054   30.3934  -71.7228 H         1 UNK         0.1032 
     83 H83       -71.9312   32.7223  -73.1654 H         1 UNK         0.0461 
     84 H84       -70.1791   33.2845  -71.8558 H         1 UNK         0.3453 
     85 H85       -69.1012   32.1229  -71.1266 H         1 UNK         0.3453 
     86 H86       -72.6676   30.1110  -74.1513 H         1 UNK         0.2984 
     87 H87       -72.4653   30.4522  -76.8715 H         1 UNK         0.0554 
     88 H88       -70.3839   31.2447  -77.9222 H         1 UNK         0.0847 
     89 H89       -70.6375   29.5561  -78.3300 H         1 UNK         0.0847 
     90 H90       -69.4440   30.0025  -77.1114 H         1 UNK         0.0847 
     91 H91       -72.6252   28.3572  -76.2233 H         1 UNK         0.3141 
     92 H92       -70.4755   25.8790  -75.1221 H         1 UNK         0.0743 
     93 H93       -70.7265   26.7568  -72.8292 H         1 UNK         0.0784 
     94 H94       -72.3898   27.2230  -73.1372 H         1 UNK         0.0784 
     95 H95       -71.9413   25.5178  -73.1071 H         1 UNK         0.0784 
     96 H96       -73.3636   26.1248  -75.1878 H         1 UNK         0.3213 
     97 H97       -73.7455   25.8918  -78.6524 H         1 UNK         0.0855 
     98 H98       -73.9664   23.3719  -76.9172 H         1 UNK         0.0814 
     99 H99       -73.0928   23.4959  -78.4381 H         1 UNK         0.0814 
    100 H100      -74.8413   23.6620  -78.4201 H         1 UNK         0.0814 
    101 H101      -75.5991   25.2377  -76.5931 H         1 UNK         0.3105 
    102 H102      -76.2044   28.4389  -75.2812 H         1 UNK         0.0547 
    103 H103      -78.5008   28.2305  -76.1593 H         1 UNK         0.0837 
    104 H104      -77.4114   28.6828  -77.4575 H         1 UNK         0.0837 
    105 H105      -77.9631   27.0180  -77.3311 H         1 UNK         0.0837 
    106 H106      -77.7193   26.0623  -75.0174 H         1 UNK         0.3020 
    107 H107      -75.5013   24.1180  -73.1448 H         1 UNK         0.1245 
    108 H108      -77.2061   24.2338  -71.2199 H         1 UNK         0.0781 
    109 H109      -77.5038   25.8831  -71.6696 H         1 UNK         0.0781 
    110 H110      -74.9663   27.3955  -69.2094 H         1 UNK         0.0836 
    111 H111      -76.5262   26.6517  -68.9720 H         1 UNK         0.0836 
    112 H112      -78.1896   23.6607  -73.1791 H         1 UNK         0.3022 
    113 H113      -77.9035   21.4769  -75.8366 H         1 UNK         0.0747 
    114 H114      -79.6120   20.7228  -74.2368 H         1 UNK         0.0793 
    115 H115      -78.1890   21.2199  -73.3456 H         1 UNK         0.0793 
    116 H116      -79.6037   22.2705  -73.4054 H         1 UNK         0.0793 
    117 H117      -79.7035   23.7743  -75.9861 H         1 UNK         0.3047 
    118 H118      -81.3670   22.4678  -78.6836 H         1 UNK         0.0822 
    119 H119      -82.7832   20.9530  -77.3444 H         1 UNK         0.0807 
    120 H120      -83.6442   22.4539  -77.6377 H         1 UNK         0.0807 
    121 H121      -82.9189   22.1438  -76.0605 H         1 UNK         0.0807 
    122 H122      -82.0960   24.4320  -76.6118 H         1 UNK         0.2946 
    123 H123      -80.1428   27.0024  -77.9957 H         1 UNK         0.1144 
    124 H124      -82.2340   28.2476  -78.4465 H         1 UNK         0.0793 
    125 H125      -83.1616   26.7462  -78.4455 H         1 UNK         0.0793 
    126 H126      -81.9672   27.0487  -79.6995 H         1 UNK         0.0793 
    127 H127      -82.2658   27.2168  -76.1684 H         1 UNK         0.2896 
@<TRIPOS>BOND
     1    1    2 1    
     2    1   67 1    
     3    1   68 1    
     4    1   69 1    
     5    2    3 2    
     6    2    4 am   BACKBONE|DICT|INTERRES
     7    4    5 1    
     8    4   70 1    
     9    5    6 1    
    10    5   65 1    
    11    5   71 1    
    12    6    7 1    
    13    6   72 1    
    14    6   73 1    
    15    7    8 1    
    16    8    9 1    
    17    8   74 1    
    18    8   75 1    
    19    9   10 ar   
    20    9   14 ar   
    21   10   11 ar   
    22   10   76 1    
    23   11   12 ar   
    24   11   48 1    
    25   12   13 ar   
    26   12   77 1    
    27   13   14 ar   
    28   13   15 1    
    29   14   78 1    
    30   15   16 1    
    31   15   79 1    
    32   15   80 1    
    33   16   17 1    
    34   17   18 1    
    35   17   81 1    
    36   17   82 1    
    37   18   19 1    
    38   18   22 1    
    39   18   83 1    
    40   19   20 am   BACKBONE|DICT|INTERRES
    41   19   21 2    
    42   20   84 1    
    43   20   85 1    
    44   22   23 am   BACKBONE|DICT|INTERRES
    45   22   86 1    
    46   23   24 2    
    47   23   25 1    
    48   25   26 1    
    49   25   27 1    
    50   25   87 1    
    51   26   88 1    
    52   26   89 1    
    53   26   90 1    
    54   27   28 am   BACKBONE|DICT|INTERRES
    55   27   91 1    
    56   28   29 2    
    57   28   30 1    
    58   30   31 1    
    59   30   32 1    
    60   30   92 1    
    61   31   93 1    
    62   31   94 1    
    63   31   95 1    
    64   32   33 am   BACKBONE|DICT|INTERRES
    65   32   96 1    
    66   33   34 2    
    67   33   35 1    
    68   35   36 1    
    69   35   37 1    
    70   35   97 1    
    71   36   98 1    
    72   36   99 1    
    73   36  100 1    
    74   37   38 am   BACKBONE|DICT|INTERRES
    75   37  101 1    
    76   38   39 2    
    77   38   40 1    
    78   40   41 1    
    79   40   42 1    
    80   40  102 1    
    81   41  103 1    
    82   41  104 1    
    83   41  105 1    
    84   42   43 am   BACKBONE|DICT|INTERRES
    85   42  106 1    
    86   43   44 2    
    87   43   45 1    
    88   45   46 1    
    89   45   49 1    
    90   45  107 1    
    91   46   47 1    
    92   46  108 1    
    93   46  109 1    
    94   47   48 1    
    95   48  110 1    
    96   48  111 1    
    97   49   50 am   BACKBONE|DICT|INTERRES
    98   49  112 1    
    99   50   51 2    
   100   50   52 1    
   101   52   53 1    
   102   52   54 1    
   103   52  113 1    
   104   53  114 1    
   105   53  115 1    
   106   53  116 1    
   107   54   55 am   BACKBONE|DICT|INTERRES
   108   54  117 1    
   109   55   56 2    
   110   55   57 1    
   111   57   58 1    
   112   57   59 1    
   113   57  118 1    
   114   58  119 1    
   115   58  120 1    
   116   58  121 1    
   117   59   60 am   BACKBONE|DICT|INTERRES
   118   59  122 1    
   119   60   61 2    
   120   60   62 1    
   121   62   63 1    
   122   62   64 1    
   123   62  123 1    
   124   63  124 1    
   125   63  125 1    
   126   63  126 1    
   127   64   65 am   BACKBONE|DICT|INTERRES
   128   64  127 1    
   129   65   66 2    
@<TRIPOS>SUBSTRUCTURE
     1 UNK         1 GROUP             0       ****    0 ROOT    
