@<TRIPOS>MOLECULE
3R135
127   129    1
SMALL
USER_CHARGES


@<TRIPOS>ATOM
      1 CA        -84.4308   28.8299  -72.0815 C.3       0 UNK        -0.1998 
      2 C         -83.9669   28.2744  -73.4196 C.2       0 UNK         0.4909 
      3 O         -84.7974   27.9424  -74.2660 O.2       0 UNK        -0.5240 
      4 N         -82.6456   28.1744  -73.6164 N.am      1 UNK        -0.4739 
      5 CA        -82.0172   27.6501  -74.8373 C.3       1 UNK         0.0864 
      6 C6        -80.5119   28.0031  -74.9178 C.3       11 UNK        -0.0881 
      7 S7        -80.2062   29.8024  -74.9931 S.3       11 UNK        -0.2682 
      8 C8        -79.8658   30.2420  -73.2584 C.3       11 UNK         0.0289 
      9 C9        -78.5293   29.7104  -72.7592 C.ar      11 UNK        -0.0687 
     10 C10       -78.4732   28.5198  -72.0271 C.ar      11 UNK        -0.0823 
     11 C11       -77.2594   28.0576  -71.5112 C.ar      11 UNK        -0.0830 
     12 C12       -76.0985   28.8062  -71.7193 C.ar      11 UNK        -0.1021 
     13 C13       -76.1389   29.9984  -72.4474 C.ar      11 UNK        -0.0753 
     14 C14       -77.3561   30.4419  -72.9735 C.ar      11 UNK        -0.0933 
     15 C15       -74.8796   30.8371  -72.5967 C.3       11 UNK         0.0166 
     16 S16       -74.1563   30.7338  -74.2633 S.3       11 UNK        -0.2615 
     17 C17       -72.5447   31.5419  -73.9431 C.3       11 UNK        -0.0865 
     18 CA        -71.3066   30.7065  -74.3916 C.3       10 UNK         0.0862 
     19 C         -69.9490   31.3801  -74.0259 C.2       10 UNK         0.5551 
     20 N         -69.8100   32.6797  -74.2551 N.am      10 UNK        -0.7319 
     21 O         -69.0022   30.7405  -73.5705 O.2       10 UNK        -0.5018 
     22 N         -71.3751   29.2872  -74.0092 N.am      10 UNK        -0.4509 
     23 C         -71.4654   28.7751  -72.7740 C.2       10 UNK         0.4899 
     24 O         -71.5069   29.4582  -71.7497 O.2       10 UNK        -0.4839 
     25 CA        -71.5361   27.2376  -72.6599 C.3       9 UNK         0.0222 
     26 CB        -72.6230   26.7868  -71.6698 C.3       9 UNK        -0.1966 
     27 N         -71.7983   26.6080  -73.9579 N.am      9 UNK        -0.4218 
     28 C         -70.8739   26.0184  -74.7274 C.2       9 UNK         0.5020 
     29 O         -69.7052   25.8335  -74.3855 O.2       9 UNK        -0.5274 
     30 CA        -71.3187   25.6051  -76.1406 C.3       8 UNK         0.0270 
     31 CB        -72.1172   24.2940  -76.0934 C.3       8 UNK        -0.1976 
     32 N         -72.1060   26.6398  -76.8199 N.am      8 UNK        -0.4313 
     33 C         -71.6767   27.8724  -77.1242 C.2       8 UNK         0.5041 
     34 O         -70.5418   28.2749  -76.8716 O.2       8 UNK        -0.5577 
     35 CA        -72.6767   28.8515  -77.7672 C.3       7 UNK         0.0284 
     36 CB        -72.7121   28.6934  -79.3002 C.3       7 UNK        -0.1958 
     37 N         -74.0202   28.8106  -77.1724 N.am      7 UNK        -0.4454 
     38 C         -74.9239   27.8260  -77.2358 C.2       7 UNK         0.5089 
     39 O         -74.7697   26.7851  -77.8784 O.2       7 UNK        -0.5125 
     40 CA        -76.2103   28.0313  -76.4220 C.3       6 UNK         0.0408 
     41 CB        -77.3520   28.4531  -77.3582 C.3       6 UNK        -0.1791 
     42 N         -76.5940   26.8219  -75.6894 N.am      6 UNK        -0.4762 
     43 C         -75.8259   26.1832  -74.7912 C.2       6 UNK         0.5007 
     44 O         -74.7044   26.5666  -74.4480 O.2       6 UNK        -0.5032 
     45 CA        -76.3884   24.8614  -74.2220 C.3       5 UNK         0.0783 
     46 C46       -77.2521   25.0836  -72.9561 C.3       11 UNK        -0.0857 
     47 S47       -76.2463   25.4557  -71.4810 S.3       11 UNK        -0.2512 
     48 C48       -77.2115   26.7791  -70.6839 C.3       11 UNK         0.0225 
     49 N         -77.1237   24.0873  -75.2304 N.am      5 UNK        -0.4615 
     50 C         -76.5568   23.4998  -76.2964 C.2       4 UNK         0.5053 
     51 O         -75.3490   23.5307  -76.5267 O.2       4 UNK        -0.5105 
     52 CA        -77.4896   22.7078  -77.2256 C.3       4 UNK         0.0263 
     53 CB        -76.7396   21.7953  -78.2156 C.3       4 UNK        -0.1981 
     54 N         -78.3986   21.9113  -76.4088 N.am      4 UNK        -0.4224 
     55 C         -79.7044   21.7456  -76.6348 C.2       3 UNK         0.4895 
     56 O         -80.2849   22.1303  -77.6513 O.2       3 UNK        -0.5091 
     57 CA        -80.5188   21.0686  -75.5154 C.3       3 UNK         0.0250 
     58 CB        -79.6599   20.3869  -74.4240 C.3       3 UNK        -0.1996 
     59 N         -81.4625   22.0082  -74.8985 N.am      3 UNK        -0.4254 
     60 C         -81.1831   23.2079  -74.3643 C.2       2 UNK         0.5004 
     61 O         -80.0511   23.7001  -74.2959 O.2       2 UNK        -0.5226 
     62 CA        -82.3828   23.9607  -73.7628 C.3       2 UNK         0.0269 
     63 CB        -82.5743   23.5649  -72.2895 C.3       2 UNK        -0.1926 
     64 N         -82.2347   25.4142  -73.8436 N.am      2 UNK        -0.4687 
     65 C         -82.2128   26.1263  -74.9798 C.2       1 UNK         0.5165 
     66 O         -82.3544   25.6346  -76.1004 O.2       1 UNK        -0.5079 
     67 H67       -85.0432   28.0934  -71.5619 H         1 UNK         0.0900 
     68 H68       -85.0323   29.7254  -72.2358 H         1 UNK         0.0900 
     69 H69       -83.5935   29.0918  -71.4349 H         1 UNK         0.0900 
     70 H70       -82.0142   28.4769  -72.8908 H         1 UNK         0.2959 
     71 H71       -82.5176   28.1113  -75.6922 H         1 UNK         0.1079 
     72 H72       -79.9588   27.5558  -74.0929 H         1 UNK         0.0837 
     73 H73       -80.0821   27.5713  -75.8233 H         1 UNK         0.0837 
     74 H74       -79.8727   31.3297  -73.1743 H         1 UNK         0.0685 
     75 H75       -80.6776   29.8932  -72.6203 H         1 UNK         0.0685 
     76 H76       -79.3796   27.9611  -71.8403 H         1 UNK         0.1434 
     77 H77       -75.1656   28.4697  -71.2916 H         1 UNK         0.1329 
     78 H78       -77.3941   31.3710  -73.5257 H         1 UNK         0.1335 
     79 H79       -75.1063   31.8798  -72.3694 H         1 UNK         0.0680 
     80 H80       -74.1372   30.5182  -71.8631 H         1 UNK         0.0680 
     81 H81       -72.4576   31.7858  -72.8829 H         1 UNK         0.1032 
     82 H82       -72.5611   32.5011  -74.4621 H         1 UNK         0.1032 
     83 H83       -71.3155   30.6868  -75.4811 H         1 UNK         0.0461 
     84 H84       -68.9304   33.1202  -74.0338 H         1 UNK         0.3453 
     85 H85       -70.5535   33.2282  -74.6568 H         1 UNK         0.3453 
     86 H86       -71.2537   28.6390  -74.7750 H         1 UNK         0.2984 
     87 H87       -70.5721   26.9094  -72.2667 H         1 UNK         0.0554 
     88 H88       -72.6059   25.7059  -71.5302 H         1 UNK         0.0847 
     89 H89       -73.6160   27.0557  -72.0256 H         1 UNK         0.0847 
     90 H90       -72.4872   27.2414  -70.6878 H         1 UNK         0.0847 
     91 H91       -72.7535   26.6853  -74.3031 H         1 UNK         0.3141 
     92 H92       -70.4195   25.4360  -76.7367 H         1 UNK         0.0743 
     93 H93       -73.0277   24.3998  -75.5025 H         1 UNK         0.0784 
     94 H94       -72.4049   23.9645  -77.0920 H         1 UNK         0.0784 
     95 H95       -71.5283   23.4935  -75.6438 H         1 UNK         0.0784 
     96 H96       -73.0616   26.4055  -77.0793 H         1 UNK         0.3213 
     97 H97       -72.3034   29.8557  -77.5606 H         1 UNK         0.0855 
     98 H98       -71.7225   28.8601  -79.7276 H         1 UNK         0.0814 
     99 H99       -73.3884   29.4152  -79.7581 H         1 UNK         0.0814 
    100 H100      -73.0282   27.6958  -79.6057 H         1 UNK         0.0814 
    101 H101      -74.2376   29.5934  -76.5678 H         1 UNK         0.3105 
    102 H102      -76.0508   28.8222  -75.6865 H         1 UNK         0.0547 
    103 H103      -77.0823   29.3445  -77.9262 H         1 UNK         0.0837 
    104 H104      -77.5964   27.6703  -78.0774 H         1 UNK         0.0837 
    105 H105      -78.2536   28.6944  -76.8014 H         1 UNK         0.0837 
    106 H106      -77.4726   26.3978  -75.9442 H         1 UNK         0.3020 
    107 H107      -75.5243   24.2561  -73.9371 H         1 UNK         0.1245 
    108 H108      -77.8137   24.1772  -72.7241 H         1 UNK         0.0781 
    109 H109      -78.0016   25.8581  -73.1255 H         1 UNK         0.0781 
    110 H110      -76.7637   27.0025  -69.7146 H         1 UNK         0.0836 
    111 H111      -78.2165   26.4086  -70.4753 H         1 UNK         0.0836 
    112 H112      -78.1238   23.9887  -75.0808 H         1 UNK         0.3022 
    113 H113      -78.0542   23.4481  -77.7967 H         1 UNK         0.0747 
    114 H114      -77.4332   21.2656  -78.8686 H         1 UNK         0.0793 
    115 H115      -76.0729   22.3756  -78.8549 H         1 UNK         0.0793 
    116 H116      -76.1330   21.0523  -77.6967 H         1 UNK         0.0793 
    117 H117      -78.0220   21.5777  -75.5320 H         1 UNK         0.3047 
    118 H118      -81.1150   20.2936  -75.9997 H         1 UNK         0.0822 
    119 H119      -80.2903   19.8452  -73.7186 H         1 UNK         0.0807 
    120 H120      -79.0723   21.1029  -73.8479 H         1 UNK         0.0807 
    121 H121      -78.9735   19.6576  -74.8568 H         1 UNK         0.0807 
    122 H122      -82.4288   21.7131  -74.9168 H         1 UNK         0.2946 
    123 H123      -83.2811   23.6882  -74.3216 H         1 UNK         0.1144 
    124 H124      -82.7233   22.4890  -72.1881 H         1 UNK         0.0793 
    125 H125      -83.4479   24.0527  -71.8564 H         1 UNK         0.0793 
    126 H126      -81.7056   23.8308  -71.6854 H         1 UNK         0.0793 
    127 H127      -82.1034   25.9048  -72.9720 H         1 UNK         0.2896 
@<TRIPOS>BOND
     1    1    2 1    
     2    1   67 1    
     3    1   68 1    
     4    1   69 1    
     5    2    3 2    
     6    2    4 am   BACKBONE|DICT|INTERRES
     7    4    5 1    
     8    4   70 1    
     9    5    6 1    
    10    5   65 1    
    11    5   71 1    
    12    6    7 1    
    13    6   72 1    
    14    6   73 1    
    15    7    8 1    
    16    8    9 1    
    17    8   74 1    
    18    8   75 1    
    19    9   10 ar   
    20    9   14 ar   
    21   10   11 ar   
    22   10   76 1    
    23   11   12 ar   
    24   11   48 1    
    25   12   13 ar   
    26   12   77 1    
    27   13   14 ar   
    28   13   15 1    
    29   14   78 1    
    30   15   16 1    
    31   15   79 1    
    32   15   80 1    
    33   16   17 1    
    34   17   18 1    
    35   17   81 1    
    36   17   82 1    
    37   18   19 1    
    38   18   22 1    
    39   18   83 1    
    40   19   20 am   BACKBONE|DICT|INTERRES
    41   19   21 2    
    42   20   84 1    
    43   20   85 1    
    44   22   23 am   BACKBONE|DICT|INTERRES
    45   22   86 1    
    46   23   24 2    
    47   23   25 1    
    48   25   26 1    
    49   25   27 1    
    50   25   87 1    
    51   26   88 1    
    52   26   89 1    
    53   26   90 1    
    54   27   28 am   BACKBONE|DICT|INTERRES
    55   27   91 1    
    56   28   29 2    
    57   28   30 1    
    58   30   31 1    
    59   30   32 1    
    60   30   92 1    
    61   31   93 1    
    62   31   94 1    
    63   31   95 1    
    64   32   33 am   BACKBONE|DICT|INTERRES
    65   32   96 1    
    66   33   34 2    
    67   33   35 1    
    68   35   36 1    
    69   35   37 1    
    70   35   97 1    
    71   36   98 1    
    72   36   99 1    
    73   36  100 1    
    74   37   38 am   BACKBONE|DICT|INTERRES
    75   37  101 1    
    76   38   39 2    
    77   38   40 1    
    78   40   41 1    
    79   40   42 1    
    80   40  102 1    
    81   41  103 1    
    82   41  104 1    
    83   41  105 1    
    84   42   43 am   BACKBONE|DICT|INTERRES
    85   42  106 1    
    86   43   44 2    
    87   43   45 1    
    88   45   46 1    
    89   45   49 1    
    90   45  107 1    
    91   46   47 1    
    92   46  108 1    
    93   46  109 1    
    94   47   48 1    
    95   48  110 1    
    96   48  111 1    
    97   49   50 am   BACKBONE|DICT|INTERRES
    98   49  112 1    
    99   50   51 2    
   100   50   52 1    
   101   52   53 1    
   102   52   54 1    
   103   52  113 1    
   104   53  114 1    
   105   53  115 1    
   106   53  116 1    
   107   54   55 am   BACKBONE|DICT|INTERRES
   108   54  117 1    
   109   55   56 2    
   110   55   57 1    
   111   57   58 1    
   112   57   59 1    
   113   57  118 1    
   114   58  119 1    
   115   58  120 1    
   116   58  121 1    
   117   59   60 am   BACKBONE|DICT|INTERRES
   118   59  122 1    
   119   60   61 2    
   120   60   62 1    
   121   62   63 1    
   122   62   64 1    
   123   62  123 1    
   124   63  124 1    
   125   63  125 1    
   126   63  126 1    
   127   64   65 am   BACKBONE|DICT|INTERRES
   128   64  127 1    
   129   65   66 2    
@<TRIPOS>SUBSTRUCTURE
     1 UNK         1 GROUP             0       ****    0 ROOT    
