@<TRIPOS>MOLECULE
3R135
127   129    1
SMALL
USER_CHARGES


@<TRIPOS>ATOM
      1 CA        -83.4333   23.6623  -72.4999 C.3       0 UNK        -0.1998 
      2 C         -82.8668   24.8979  -73.1810 C.2       0 UNK         0.4909 
      3 O         -82.7603   24.9376  -74.4080 O.2       0 UNK        -0.5240 
      4 N         -82.5073   25.9118  -72.3856 N.am      1 UNK        -0.4739 
      5 CA        -81.9593   27.1938  -72.8396 C.3       1 UNK         0.0864 
      6 C6        -81.9135   28.2569  -71.7078 C.3       11 UNK        -0.0881 
      7 S7        -81.2869   27.6548  -70.1002 S.3       11 UNK        -0.2682 
      8 C8        -80.0103   28.8898  -69.6977 C.3       11 UNK         0.0289 
      9 C9        -78.7244   28.6509  -70.4733 C.ar      11 UNK        -0.0687 
     10 C10       -77.9782   27.4953  -70.2331 C.ar      11 UNK        -0.0823 
     11 C11       -76.7981   27.2558  -70.9370 C.ar      11 UNK        -0.0830 
     12 C12       -76.3483   28.1974  -71.8674 C.ar      11 UNK        -0.1021 
     13 C13       -77.0856   29.3614  -72.1259 C.ar      11 UNK        -0.0753 
     14 C14       -78.2754   29.5765  -71.4207 C.ar      11 UNK        -0.0933 
     15 C15       -76.6738   30.3879  -73.1849 C.3       11 UNK         0.0166 
     16 S16       -74.9941   30.1978  -73.8771 S.3       11 UNK        -0.2615 
     17 C17       -73.9641   30.9017  -72.5442 C.3       11 UNK        -0.0865 
     18 CA        -72.7939   31.7486  -73.1112 C.3       10 UNK         0.0862 
     19 C         -72.0820   32.5560  -71.9859 C.2       10 UNK         0.5551 
     20 N         -70.7888   32.3727  -71.7473 N.am      10 UNK        -0.7319 
     21 O         -72.7161   33.3725  -71.3222 O.2       10 UNK        -0.5018 
     22 N         -71.8911   30.9227  -73.9312 N.am      10 UNK        -0.4509 
     23 C         -71.1265   31.3664  -74.9372 C.2       10 UNK         0.4899 
     24 O         -71.1016   32.5397  -75.3101 O.2       10 UNK        -0.4839 
     25 CA        -70.2188   30.3379  -75.6421 C.3       9 UNK         0.0222 
     26 CB        -68.7390   30.6363  -75.3458 C.3       9 UNK        -0.1966 
     27 N         -70.5100   28.9521  -75.2565 N.am      9 UNK        -0.4218 
     28 C         -71.4716   28.1926  -75.7973 C.2       9 UNK         0.5020 
     29 O         -72.1927   28.5493  -76.7319 O.2       9 UNK        -0.5274 
     30 CA        -71.6898   26.8247  -75.1321 C.3       8 UNK         0.0270 
     31 CB        -72.7058   26.9442  -73.9839 C.3       8 UNK        -0.1976 
     32 N         -72.1468   25.8146  -76.0906 N.am      8 UNK        -0.4313 
     33 C         -71.3278   25.1787  -76.9424 C.2       8 UNK         0.5041 
     34 O         -70.1183   25.4086  -77.0079 O.2       8 UNK        -0.5577 
     35 CA        -71.9095   24.0737  -77.8464 C.3       7 UNK         0.0284 
     36 CB        -71.3206   22.7040  -77.4648 C.3       7 UNK        -0.1958 
     37 N         -73.3690   23.9797  -77.7967 N.am      7 UNK        -0.4454 
     38 C         -74.2075   24.6531  -78.5939 C.2       7 UNK         0.5089 
     39 O         -73.8396   25.4178  -79.4863 O.2       7 UNK        -0.5125 
     40 CA        -75.7157   24.4374  -78.3590 C.3       6 UNK         0.0408 
     41 CB        -76.2652   23.3985  -79.3490 C.3       6 UNK        -0.1791 
     42 N         -76.0835   24.0408  -76.9924 N.am      6 UNK        -0.4762 
     43 C         -75.8425   24.7597  -75.8862 C.2       6 UNK         0.5007 
     44 O         -75.1634   25.7872  -75.8977 O.2       6 UNK        -0.5032 
     45 CA        -76.4374   24.2452  -74.5538 C.3       5 UNK         0.0783 
     46 C46       -76.2562   25.2741  -73.4147 C.3       11 UNK        -0.0857 
     47 S47       -76.6851   24.6220  -71.7693 S.3       11 UNK        -0.2512 
     48 C48       -76.0319   25.9597  -70.7176 C.3       11 UNK         0.0225 
     49 N         -77.8467   23.8681  -74.7040 N.am      5 UNK        -0.4615 
     50 C         -78.2847   22.6910  -75.1646 C.2       4 UNK         0.5053 
     51 O         -77.5386   21.7855  -75.5375 O.2       4 UNK        -0.5105 
     52 CA        -79.8062   22.5174  -75.2717 C.3       4 UNK         0.0263 
     53 CB        -80.4257   22.2796  -73.8871 C.3       4 UNK        -0.1981 
     54 N         -80.4346   23.6730  -75.9167 N.am      4 UNK        -0.4224 
     55 C         -80.3121   23.9540  -77.2230 C.2       3 UNK         0.4895 
     56 O         -79.7621   23.2101  -78.0353 O.2       3 UNK        -0.5091 
     57 CA        -80.8748   25.2999  -77.7058 C.3       3 UNK         0.0250 
     58 CB        -82.3844   25.2028  -77.9780 C.3       3 UNK        -0.1996 
     59 N         -80.6061   26.3848  -76.7598 N.am      3 UNK        -0.4254 
     60 C         -79.3935   26.9191  -76.5428 C.2       2 UNK         0.5004 
     61 O         -78.3870   26.5934  -77.1687 O.2       2 UNK        -0.5226 
     62 CA        -79.2777   28.0151  -75.4654 C.3       2 UNK         0.0269 
     63 CB        -79.2057   29.3974  -76.1362 C.3       2 UNK        -0.1926 
     64 N         -80.3892   28.0145  -74.5107 N.am      2 UNK        -0.4687 
     65 C         -80.6238   27.0542  -73.6057 C.2       1 UNK         0.5165 
     66 O         -79.8780   26.0865  -73.4265 O.2       1 UNK        -0.5079 
     67 H67       -83.8427   22.9703  -73.2355 H         1 UNK         0.0900 
     68 H68       -84.2331   23.9342  -71.8115 H         1 UNK         0.0900 
     69 H69       -82.6555   23.1451  -71.9391 H         1 UNK         0.0900 
     70 H70       -82.5685   25.8084  -71.3823 H         1 UNK         0.2959 
     71 H71       -82.6774   27.5616  -73.5766 H         1 UNK         0.1079 
     72 H72       -81.3525   29.1392  -72.0219 H         1 UNK         0.0837 
     73 H73       -82.9272   28.6182  -71.5275 H         1 UNK         0.0837 
     74 H74       -80.4003   29.8936  -69.8732 H         1 UNK         0.0685 
     75 H75       -79.7922   28.8306  -68.6304 H         1 UNK         0.0685 
     76 H76       -78.3333   26.7681  -69.5155 H         1 UNK         0.1434 
     77 H77       -75.4387   27.9913  -72.4118 H         1 UNK         0.1329 
     78 H78       -78.8578   30.4666  -71.6159 H         1 UNK         0.1335 
     79 H79       -76.7850   31.3974  -72.7863 H         1 UNK         0.0680 
     80 H80       -77.3759   30.3109  -74.0129 H         1 UNK         0.0680 
     81 H81       -73.5896   30.0891  -71.9193 H         1 UNK         0.1032 
     82 H82       -74.5965   31.5116  -71.8963 H         1 UNK         0.1032 
     83 H83       -73.2332   32.5030  -73.7672 H         1 UNK         0.0461 
     84 H84       -70.3399   32.9058  -71.0191 H         1 UNK         0.3453 
     85 H85       -70.2584   31.7120  -72.2910 H         1 UNK         0.3453 
     86 H86       -71.8566   29.9430  -73.6992 H         1 UNK         0.2984 
     87 H87       -70.3763   30.4481  -76.7172 H         1 UNK         0.0554 
     88 H88       -68.0810   29.9552  -75.8861 H         1 UNK         0.0847 
     89 H89       -68.5114   30.5511  -74.2826 H         1 UNK         0.0847 
     90 H90       -68.4744   31.6488  -75.6544 H         1 UNK         0.0847 
     91 H91       -69.9589   28.5704  -74.5002 H         1 UNK         0.3141 
     92 H92       -70.7419   26.4873  -74.7063 H         1 UNK         0.0743 
     93 H93       -72.3516   27.6287  -73.2126 H         1 UNK         0.0784 
     94 H94       -73.6665   27.3233  -74.3348 H         1 UNK         0.0784 
     95 H95       -72.8738   25.9803  -73.5041 H         1 UNK         0.0784 
     96 H96       -73.1493   25.6634  -76.1470 H         1 UNK         0.3213 
     97 H97       -71.5973   24.2998  -78.8685 H         1 UNK         0.0855 
     98 H98       -70.2319   22.7120  -77.5347 H         1 UNK         0.0814 
     99 H99       -71.6782   21.9184  -78.1307 H         1 UNK         0.0814 
    100 H100      -71.5785   22.4230  -76.4429 H         1 UNK         0.0814 
    101 H101      -73.7674   23.3734  -77.0945 H         1 UNK         0.3105 
    102 H102      -76.2096   25.3903  -78.5597 H         1 UNK         0.0547 
    103 H103      -76.0259   23.6727  -80.3775 H         1 UNK         0.0837 
    104 H104      -75.8463   22.4078  -79.1692 H         1 UNK         0.0837 
    105 H105      -77.3503   23.3225  -79.2824 H         1 UNK         0.0837 
    106 H106      -76.6349   23.1964  -76.8921 H         1 UNK         0.3020 
    107 H107      -75.8614   23.3557  -74.2879 H         1 UNK         0.1245 
    108 H108      -76.8650   26.1573  -73.6151 H         1 UNK         0.0781 
    109 H109      -75.2213   25.6116  -73.3605 H         1 UNK         0.0781 
    110 H110      -74.9690   26.1025  -70.9192 H         1 UNK         0.0836 
    111 H111      -76.1051   25.6571  -69.6719 H         1 UNK         0.0836 
    112 H112      -78.5244   24.5621  -74.4110 H         1 UNK         0.3022 
    113 H113      -80.0001   21.6336  -75.8835 H         1 UNK         0.0747 
    114 H114      -81.4886   22.0546  -73.9691 H         1 UNK         0.0793 
    115 H115      -79.9543   21.4315  -73.3886 H         1 UNK         0.0793 
    116 H116      -80.3087   23.1471  -73.2359 H         1 UNK         0.0793 
    117 H117      -80.9582   24.3100  -75.3252 H         1 UNK         0.3047 
    118 H118      -80.3787   25.5442  -78.6479 H         1 UNK         0.0822 
    119 H119      -82.7741   26.1343  -78.3889 H         1 UNK         0.0807 
    120 H120      -82.9483   24.9730  -77.0736 H         1 UNK         0.0807 
    121 H121      -82.5983   24.4159  -78.7026 H         1 UNK         0.0807 
    122 H122      -81.3826   26.7046  -76.1995 H         1 UNK         0.2946 
    123 H123      -78.3517   27.8418  -74.9112 H         1 UNK         0.1144 
    124 H124      -79.1843   30.2036  -75.4040 H         1 UNK         0.0793 
    125 H125      -80.0595   29.5720  -76.7923 H         1 UNK         0.0793 
    126 H126      -78.3045   29.4856  -76.7448 H         1 UNK         0.0793 
    127 H127      -81.0477   28.7757  -74.5971 H         1 UNK         0.2896 
@<TRIPOS>BOND
     1    1    2 1    
     2    1   67 1    
     3    1   68 1    
     4    1   69 1    
     5    2    3 2    
     6    2    4 am   BACKBONE|DICT|INTERRES
     7    4    5 1    
     8    4   70 1    
     9    5    6 1    
    10    5   65 1    
    11    5   71 1    
    12    6    7 1    
    13    6   72 1    
    14    6   73 1    
    15    7    8 1    
    16    8    9 1    
    17    8   74 1    
    18    8   75 1    
    19    9   10 ar   
    20    9   14 ar   
    21   10   11 ar   
    22   10   76 1    
    23   11   12 ar   
    24   11   48 1    
    25   12   13 ar   
    26   12   77 1    
    27   13   14 ar   
    28   13   15 1    
    29   14   78 1    
    30   15   16 1    
    31   15   79 1    
    32   15   80 1    
    33   16   17 1    
    34   17   18 1    
    35   17   81 1    
    36   17   82 1    
    37   18   19 1    
    38   18   22 1    
    39   18   83 1    
    40   19   20 am   BACKBONE|DICT|INTERRES
    41   19   21 2    
    42   20   84 1    
    43   20   85 1    
    44   22   23 am   BACKBONE|DICT|INTERRES
    45   22   86 1    
    46   23   24 2    
    47   23   25 1    
    48   25   26 1    
    49   25   27 1    
    50   25   87 1    
    51   26   88 1    
    52   26   89 1    
    53   26   90 1    
    54   27   28 am   BACKBONE|DICT|INTERRES
    55   27   91 1    
    56   28   29 2    
    57   28   30 1    
    58   30   31 1    
    59   30   32 1    
    60   30   92 1    
    61   31   93 1    
    62   31   94 1    
    63   31   95 1    
    64   32   33 am   BACKBONE|DICT|INTERRES
    65   32   96 1    
    66   33   34 2    
    67   33   35 1    
    68   35   36 1    
    69   35   37 1    
    70   35   97 1    
    71   36   98 1    
    72   36   99 1    
    73   36  100 1    
    74   37   38 am   BACKBONE|DICT|INTERRES
    75   37  101 1    
    76   38   39 2    
    77   38   40 1    
    78   40   41 1    
    79   40   42 1    
    80   40  102 1    
    81   41  103 1    
    82   41  104 1    
    83   41  105 1    
    84   42   43 am   BACKBONE|DICT|INTERRES
    85   42  106 1    
    86   43   44 2    
    87   43   45 1    
    88   45   46 1    
    89   45   49 1    
    90   45  107 1    
    91   46   47 1    
    92   46  108 1    
    93   46  109 1    
    94   47   48 1    
    95   48  110 1    
    96   48  111 1    
    97   49   50 am   BACKBONE|DICT|INTERRES
    98   49  112 1    
    99   50   51 2    
   100   50   52 1    
   101   52   53 1    
   102   52   54 1    
   103   52  113 1    
   104   53  114 1    
   105   53  115 1    
   106   53  116 1    
   107   54   55 am   BACKBONE|DICT|INTERRES
   108   54  117 1    
   109   55   56 2    
   110   55   57 1    
   111   57   58 1    
   112   57   59 1    
   113   57  118 1    
   114   58  119 1    
   115   58  120 1    
   116   58  121 1    
   117   59   60 am   BACKBONE|DICT|INTERRES
   118   59  122 1    
   119   60   61 2    
   120   60   62 1    
   121   62   63 1    
   122   62   64 1    
   123   62  123 1    
   124   63  124 1    
   125   63  125 1    
   126   63  126 1    
   127   64   65 am   BACKBONE|DICT|INTERRES
   128   64  127 1    
   129   65   66 2    
@<TRIPOS>SUBSTRUCTURE
     1 UNK         1 GROUP             0       ****    0 ROOT    
