@<TRIPOS>MOLECULE
3R135
127   129    1
SMALL
USER_CHARGES


@<TRIPOS>ATOM
      1 CA        -77.5000   28.8398  -76.3242 C.3       0 UNK        -0.1998 
      2 C         -78.4526   28.0773  -75.4155 C.2       0 UNK         0.4909 
      3 O         -78.2781   26.8743  -75.2129 O.2       0 UNK        -0.5240 
      4 N         -79.4621   28.7768  -74.8803 N.am      1 UNK        -0.4739 
      5 CA        -80.5320   28.2179  -74.0488 C.3       1 UNK         0.0864 
      6 C6        -81.3137   29.3461  -73.3240 C.3       11 UNK        -0.0881 
      7 S7        -82.1284   28.7644  -71.7960 S.3       11 UNK        -0.2682 
      8 C8        -80.9952   29.3697  -70.5028 C.3       11 UNK         0.0289 
      9 C9        -79.5866   28.8141  -70.6631 C.ar      11 UNK        -0.0687 
     10 C10       -79.3493   27.4426  -70.5260 C.ar      11 UNK        -0.0823 
     11 C11       -78.0663   26.9130  -70.6981 C.ar      11 UNK        -0.0830 
     12 C12       -77.0068   27.7925  -70.9644 C.ar      11 UNK        -0.1021 
     13 C13       -77.2321   29.1611  -71.1246 C.ar      11 UNK        -0.0753 
     14 C14       -78.5237   29.6687  -70.9689 C.ar      11 UNK        -0.0933 
     15 C15       -76.0824   30.0795  -71.5075 C.3       11 UNK         0.0166 
     16 S16       -75.8789   30.1054  -73.3131 S.3       11 UNK        -0.2615 
     17 C17       -74.5166   31.2996  -73.5162 C.3       11 UNK        -0.0865 
     18 CA        -73.6058   30.9561  -74.7321 C.3       10 UNK         0.0862 
     19 C         -72.6152   32.1035  -75.0983 C.2       10 UNK         0.5551 
     20 N         -71.6715   31.8736  -76.0018 N.am      10 UNK        -0.7319 
     21 O         -72.7008   33.2130  -74.5759 O.2       10 UNK        -0.5018 
     22 N         -72.9644   29.6343  -74.6097 N.am      10 UNK        -0.4509 
     23 C         -72.0031   29.3036  -73.7339 C.2       10 UNK         0.4899 
     24 O         -71.5293   30.0741  -72.8985 O.2       10 UNK        -0.4839 
     25 CA        -71.4784   27.8615  -73.7957 C.3       9 UNK         0.0222 
     26 CB        -72.4320   26.9193  -73.0507 C.3       9 UNK        -0.1966 
     27 N         -71.3387   27.4108  -75.1799 N.am      9 UNK        -0.4218 
     28 C         -70.2226   27.5418  -75.9109 C.2       9 UNK         0.5020 
     29 O         -69.1522   27.9564  -75.4638 O.2       9 UNK        -0.5274 
     30 CA        -70.3095   27.1579  -77.4011 C.3       8 UNK         0.0270 
     31 CB        -69.9424   25.6780  -77.5978 C.3       8 UNK        -0.1976 
     32 N         -71.6260   27.4121  -77.9915 N.am      8 UNK        -0.4313 
     33 C         -72.1963   28.6199  -78.1047 C.2       8 UNK         0.5041 
     34 O         -71.6324   29.6722  -77.8062 O.2       8 UNK        -0.5577 
     35 CA        -73.6578   28.6673  -78.5869 C.3       7 UNK         0.0284 
     36 CB        -73.7171   29.0066  -80.0846 C.3       7 UNK        -0.1958 
     37 N         -74.4287   27.4421  -78.3353 N.am      7 UNK        -0.4454 
     38 C         -74.6525   26.8980  -77.1306 C.2       7 UNK         0.5089 
     39 O         -74.1824   27.3603  -76.0872 O.2       7 UNK        -0.5125 
     40 CA        -75.5685   25.6564  -77.1153 C.3       6 UNK         0.0408 
     41 CB        -75.0502   24.5373  -78.0454 C.3       6 UNK        -0.1791 
     42 N         -75.8326   25.1320  -75.7701 N.am      6 UNK        -0.4762 
     43 C         -74.9556   24.5623  -74.9270 C.2       6 UNK         0.5007 
     44 O         -73.7614   24.3893  -75.1758 O.2       6 UNK        -0.5032 
     45 CA        -75.5278   24.0612  -73.5883 C.3       5 UNK         0.0783 
     46 C46       -75.9626   25.2379  -72.6884 C.3       11 UNK        -0.0857 
     47 S47       -76.2279   24.7312  -70.9561 S.3       11 UNK        -0.2512 
     48 C48       -77.8994   25.3906  -70.6163 C.3       11 UNK         0.0225 
     49 N         -76.6259   23.1262  -73.8269 N.am      5 UNK        -0.4615 
     50 C         -76.4956   21.8712  -74.2657 C.2       4 UNK         0.5053 
     51 O         -75.4110   21.3158  -74.4406 O.2       4 UNK        -0.5105 
     52 CA        -77.7931   21.1024  -74.5744 C.3       4 UNK         0.0263 
     53 CB        -78.5093   20.6674  -73.2799 C.3       4 UNK        -0.1981 
     54 N         -78.7045   21.8028  -75.4942 N.am      4 UNK        -0.4224 
     55 C         -79.3888   22.9403  -75.2988 C.2       3 UNK         0.4895 
     56 O         -79.3327   23.6016  -74.2582 O.2       3 UNK        -0.5091 
     57 CA        -80.2354   23.4482  -76.4863 C.3       3 UNK         0.0250 
     58 CB        -80.8441   22.3156  -77.3446 C.3       3 UNK        -0.1996 
     59 N         -81.2693   24.3974  -76.0594 N.am      3 UNK        -0.4254 
     60 C         -82.3013   24.1686  -75.2334 C.2       2 UNK         0.5004 
     61 O         -82.6155   23.0542  -74.8096 O.2       2 UNK        -0.5226 
     62 CA        -83.0883   25.4148  -74.7808 C.3       2 UNK         0.0269 
     63 CB        -84.2010   25.0842  -73.7679 C.3       2 UNK        -0.1926 
     64 N         -82.1929   26.4124  -74.1866 N.am      2 UNK        -0.4687 
     65 C         -81.4694   27.3056  -74.8721 C.2       1 UNK         0.5165 
     66 O         -81.5300   27.4147  -76.1006 O.2       1 UNK        -0.5079 
     67 H67       -76.4926   28.8115  -75.9129 H         1 UNK         0.0900 
     68 H68       -77.4825   28.3899  -77.3160 H         1 UNK         0.0900 
     69 H69       -77.7872   29.8855  -76.4314 H         1 UNK         0.0900 
     70 H70       -79.5571   29.7544  -75.1126 H         1 UNK         0.2959 
     71 H71       -80.0393   27.5907  -73.3027 H         1 UNK         0.1079 
     72 H72       -82.0633   29.7936  -73.9798 H         1 UNK         0.0837 
     73 H73       -80.6404   30.1622  -73.0563 H         1 UNK         0.0837 
     74 H74       -81.3851   29.0781  -69.5266 H         1 UNK         0.0685 
     75 H75       -80.9894   30.4607  -70.5170 H         1 UNK         0.0685 
     76 H76       -80.1780   26.7815  -70.3104 H         1 UNK         0.1434 
     77 H77       -75.9985   27.4277  -71.0824 H         1 UNK         0.1329 
     78 H78       -78.7014   30.7274  -71.0998 H         1 UNK         0.1335 
     79 H79       -75.1562   29.7411  -71.0399 H         1 UNK         0.0680 
     80 H80       -76.2668   31.0922  -71.1455 H         1 UNK         0.0680 
     81 H81       -73.9255   31.3521  -72.6006 H         1 UNK         0.1032 
     82 H82       -74.9696   32.2847  -73.6407 H         1 UNK         0.1032 
     83 H83       -74.2601   30.8785  -75.6014 H         1 UNK         0.0461 
     84 H84       -71.0301   32.6125  -76.2401 H         1 UNK         0.3453 
     85 H85       -71.6279   30.9893  -76.5047 H         1 UNK         0.3453 
     86 H86       -73.3286   28.9116  -75.2217 H         1 UNK         0.2984 
     87 H87       -70.5092   27.8268  -73.2936 H         1 UNK         0.0554 
     88 H88       -72.0626   25.8936  -73.0494 H         1 UNK         0.0847 
     89 H89       -73.4136   26.9218  -73.5206 H         1 UNK         0.0847 
     90 H90       -72.5610   27.2258  -72.0119 H         1 UNK         0.0847 
     91 H91       -72.1882   27.0912  -75.6335 H         1 UNK         0.3141 
     92 H92       -69.5815   27.7678  -77.9402 H         1 UNK         0.0743 
     93 H93       -70.6521   25.0157  -77.0996 H         1 UNK         0.0784 
     94 H94       -69.9166   25.4114  -78.6546 H         1 UNK         0.0784 
     95 H95       -68.9543   25.4641  -77.1876 H         1 UNK         0.0784 
     96 H96       -72.1647   26.6059  -78.2716 H         1 UNK         0.3213 
     97 H97       -74.1459   29.4742  -78.0358 H         1 UNK         0.0855 
     98 H98       -74.7438   29.1565  -80.4189 H         1 UNK         0.0814 
     99 H99       -73.2741   28.2191  -80.6956 H         1 UNK         0.0814 
    100 H100      -73.1730   29.9282  -80.2975 H         1 UNK         0.0814 
    101 H101      -74.8580   27.0142  -79.1432 H         1 UNK         0.3105 
    102 H102      -76.5382   25.9822  -77.4940 H         1 UNK         0.0547 
    103 H103      -75.6739   23.6460  -77.9754 H         1 UNK         0.0837 
    104 H104      -74.0276   24.2456  -77.8038 H         1 UNK         0.0837 
    105 H105      -75.0594   24.8469  -79.0906 H         1 UNK         0.0837 
    106 H106      -76.7692   25.3163  -75.4261 H         1 UNK         0.3020 
    107 H107      -74.7229   23.5221  -73.0825 H         1 UNK         0.1245 
    108 H108      -76.8638   25.7118  -73.0834 H         1 UNK         0.0781 
    109 H109      -75.2001   26.0134  -72.6738 H         1 UNK         0.0781 
    110 H110      -78.1934   25.0634  -69.6182 H         1 UNK         0.0836 
    111 H111      -78.5968   24.9203  -71.3120 H         1 UNK         0.0836 
    112 H112      -77.5721   23.4932  -73.7509 H         1 UNK         0.3022 
    113 H113      -77.4963   20.1918  -75.0976 H         1 UNK         0.0747 
    114 H114      -79.3882   20.0611  -73.4990 H         1 UNK         0.0793 
    115 H115      -77.8481   20.0662  -72.6545 H         1 UNK         0.0793 
    116 H116      -78.8322   21.5192  -72.6807 H         1 UNK         0.0793 
    117 H117      -78.8007   21.3646  -76.3997 H         1 UNK         0.3047 
    118 H118      -79.5541   24.0187  -77.1194 H         1 UNK         0.0822 
    119 H119      -81.5104   22.7161  -78.1089 H         1 UNK         0.0807 
    120 H120      -81.4189   21.6115  -76.7415 H         1 UNK         0.0807 
    121 H121      -80.0730   21.7493  -77.8675 H         1 UNK         0.0807 
    122 H122      -81.0969   25.3660  -76.3058 H         1 UNK         0.2946 
    123 H123      -83.5629   25.8362  -75.6703 H         1 UNK         0.1144 
    124 H124      -83.7987   24.6423  -72.8554 H         1 UNK         0.0793 
    125 H125      -84.9144   24.3741  -74.1885 H         1 UNK         0.0793 
    126 H126      -84.7614   25.9769  -73.4894 H         1 UNK         0.0793 
    127 H127      -82.0931   26.3822  -73.1814 H         1 UNK         0.2896 
@<TRIPOS>BOND
     1    1    2 1    
     2    1   67 1    
     3    1   68 1    
     4    1   69 1    
     5    2    3 2    
     6    2    4 am   BACKBONE|DICT|INTERRES
     7    4    5 1    
     8    4   70 1    
     9    5    6 1    
    10    5   65 1    
    11    5   71 1    
    12    6    7 1    
    13    6   72 1    
    14    6   73 1    
    15    7    8 1    
    16    8    9 1    
    17    8   74 1    
    18    8   75 1    
    19    9   10 ar   
    20    9   14 ar   
    21   10   11 ar   
    22   10   76 1    
    23   11   12 ar   
    24   11   48 1    
    25   12   13 ar   
    26   12   77 1    
    27   13   14 ar   
    28   13   15 1    
    29   14   78 1    
    30   15   16 1    
    31   15   79 1    
    32   15   80 1    
    33   16   17 1    
    34   17   18 1    
    35   17   81 1    
    36   17   82 1    
    37   18   19 1    
    38   18   22 1    
    39   18   83 1    
    40   19   20 am   BACKBONE|DICT|INTERRES
    41   19   21 2    
    42   20   84 1    
    43   20   85 1    
    44   22   23 am   BACKBONE|DICT|INTERRES
    45   22   86 1    
    46   23   24 2    
    47   23   25 1    
    48   25   26 1    
    49   25   27 1    
    50   25   87 1    
    51   26   88 1    
    52   26   89 1    
    53   26   90 1    
    54   27   28 am   BACKBONE|DICT|INTERRES
    55   27   91 1    
    56   28   29 2    
    57   28   30 1    
    58   30   31 1    
    59   30   32 1    
    60   30   92 1    
    61   31   93 1    
    62   31   94 1    
    63   31   95 1    
    64   32   33 am   BACKBONE|DICT|INTERRES
    65   32   96 1    
    66   33   34 2    
    67   33   35 1    
    68   35   36 1    
    69   35   37 1    
    70   35   97 1    
    71   36   98 1    
    72   36   99 1    
    73   36  100 1    
    74   37   38 am   BACKBONE|DICT|INTERRES
    75   37  101 1    
    76   38   39 2    
    77   38   40 1    
    78   40   41 1    
    79   40   42 1    
    80   40  102 1    
    81   41  103 1    
    82   41  104 1    
    83   41  105 1    
    84   42   43 am   BACKBONE|DICT|INTERRES
    85   42  106 1    
    86   43   44 2    
    87   43   45 1    
    88   45   46 1    
    89   45   49 1    
    90   45  107 1    
    91   46   47 1    
    92   46  108 1    
    93   46  109 1    
    94   47   48 1    
    95   48  110 1    
    96   48  111 1    
    97   49   50 am   BACKBONE|DICT|INTERRES
    98   49  112 1    
    99   50   51 2    
   100   50   52 1    
   101   52   53 1    
   102   52   54 1    
   103   52  113 1    
   104   53  114 1    
   105   53  115 1    
   106   53  116 1    
   107   54   55 am   BACKBONE|DICT|INTERRES
   108   54  117 1    
   109   55   56 2    
   110   55   57 1    
   111   57   58 1    
   112   57   59 1    
   113   57  118 1    
   114   58  119 1    
   115   58  120 1    
   116   58  121 1    
   117   59   60 am   BACKBONE|DICT|INTERRES
   118   59  122 1    
   119   60   61 2    
   120   60   62 1    
   121   62   63 1    
   122   62   64 1    
   123   62  123 1    
   124   63  124 1    
   125   63  125 1    
   126   63  126 1    
   127   64   65 am   BACKBONE|DICT|INTERRES
   128   64  127 1    
   129   65   66 2    
@<TRIPOS>SUBSTRUCTURE
     1 UNK         1 GROUP             0       ****    0 ROOT    
