@<TRIPOS>MOLECULE
3R135
127   129    1
SMALL
USER_CHARGES


@<TRIPOS>ATOM
      1 CA        -77.2134   28.3917  -74.9706 C.3       0 UNK        -0.1998 
      2 C         -78.0464   29.5880  -75.4250 C.2       0 UNK         0.4909 
      3 O         -77.6059   30.3350  -76.2960 O.2       0 UNK        -0.5240 
      4 N         -79.2464   29.8153  -74.8723 N.am      1 UNK        -0.4739 
      5 CA        -79.9508   28.9405  -73.9308 C.3       1 UNK         0.0864 
      6 C6        -80.9959   29.7398  -73.1053 C.3       11 UNK        -0.0881 
      7 S7        -81.8367   28.7686  -71.7995 S.3       11 UNK        -0.2682 
      8 C8        -80.7825   29.0457  -70.3384 C.3       11 UNK         0.0289 
      9 C9        -79.3560   28.5658  -70.5640 C.ar      11 UNK        -0.0687 
     10 C10       -79.0808   27.2042  -70.7319 C.ar      11 UNK        -0.0823 
     11 C11       -77.7804   26.7616  -71.0007 C.ar      11 UNK        -0.0830 
     12 C12       -76.7462   27.7071  -71.0684 C.ar      11 UNK        -0.1021 
     13 C13       -77.0061   29.0678  -70.8860 C.ar      11 UNK        -0.0753 
     14 C14       -78.3122   29.4909  -70.6324 C.ar      11 UNK        -0.0933 
     15 C15       -75.8789   30.0857  -70.9575 C.3       11 UNK         0.0166 
     16 S16       -76.0047   31.0983  -72.4611 S.3       11 UNK        -0.2615 
     17 C17       -74.5711   32.2070  -72.2560 C.3       11 UNK        -0.0865 
     18 CA        -73.4480   31.9425  -73.2939 C.3       10 UNK         0.0862 
     19 C         -72.3996   33.0837  -73.2682 C.2       10 UNK         0.5551 
     20 N         -72.6533   34.1739  -73.9784 N.am      10 UNK        -0.7319 
     21 O         -71.3766   33.0041  -72.5890 O.2       10 UNK        -0.5018 
     22 N         -72.7786   30.6523  -73.0790 N.am      10 UNK        -0.4509 
     23 C         -72.9837   29.5441  -73.7944 C.2       10 UNK         0.4899 
     24 O         -73.8533   29.4252  -74.6614 O.2       10 UNK        -0.4839 
     25 CA        -72.0591   28.3588  -73.4851 C.3       9 UNK         0.0222 
     26 CB        -72.5732   27.5710  -72.2685 C.3       9 UNK        -0.1966 
     27 N         -72.0538   27.4894  -74.6566 N.am      9 UNK        -0.4218 
     28 C         -70.9961   27.1860  -75.4177 C.2       9 UNK         0.5020 
     29 O         -69.8289   27.4313  -75.1094 O.2       9 UNK        -0.5274 
     30 CA        -71.2968   26.5149  -76.7719 C.3       8 UNK         0.0270 
     31 CB        -71.0741   24.9962  -76.6852 C.3       8 UNK        -0.1976 
     32 N         -72.6630   26.7962  -77.2370 N.am      8 UNK        -0.4313 
     33 C         -73.0388   27.9657  -77.7828 C.2       8 UNK         0.5041 
     34 O         -72.2370   28.8610  -78.0559 O.2       8 UNK        -0.5577 
     35 CA        -74.5433   28.2219  -78.0247 C.3       7 UNK         0.0284 
     36 CB        -74.8081   28.9387  -79.3667 C.3       7 UNK        -0.1958 
     37 N         -75.4068   27.0426  -77.8686 N.am      7 UNK        -0.4454 
     38 C         -75.4443   25.9499  -78.6425 C.2       7 UNK         0.5089 
     39 O         -74.7511   25.7977  -79.6495 O.2       7 UNK        -0.5125 
     40 CA        -76.4005   24.8270  -78.1823 C.3       6 UNK         0.0408 
     41 CB        -76.0832   23.4860  -78.8758 C.3       6 UNK        -0.1791 
     42 N         -76.4686   24.6312  -76.7224 N.am      6 UNK        -0.4762 
     43 C         -75.4354   24.4367  -75.8839 C.2       6 UNK         0.5007 
     44 O         -74.2589   24.5670  -76.2178 O.2       6 UNK        -0.5032 
     45 CA        -75.7488   24.0179  -74.4366 C.3       5 UNK         0.0783 
     46 C46       -75.9334   25.2496  -73.5209 C.3       11 UNK        -0.0857 
     47 S47       -75.8864   24.7675  -71.7622 S.3       11 UNK        -0.2512 
     48 C48       -77.5500   25.2579  -71.1868 C.3       11 UNK         0.0225 
     49 N         -76.9103   23.1260  -74.3998 N.am      5 UNK        -0.4615 
     50 C         -76.8481   21.7949  -74.2549 C.2       4 UNK         0.5053 
     51 O         -75.8001   21.1688  -74.0948 O.2       4 UNK        -0.5105 
     52 CA        -78.1803   21.0204  -74.2946 C.3       4 UNK         0.0263 
     53 CB        -78.7361   20.8432  -72.8722 C.3       4 UNK        -0.1981 
     54 N         -79.1907   21.6751  -75.1271 N.am      4 UNK        -0.4224 
     55 C         -79.1198   21.7958  -76.4604 C.2       3 UNK         0.4895 
     56 O         -78.2924   21.2024  -77.1510 O.2       3 UNK        -0.5091 
     57 CA        -80.1152   22.7573  -77.1423 C.3       3 UNK         0.0250 
     58 CB        -81.1513   21.9690  -77.9602 C.3       3 UNK        -0.1996 
     59 N         -80.8188   23.6634  -76.2237 N.am      3 UNK        -0.4254 
     60 C         -80.2454   24.6071  -75.4642 C.2       2 UNK         0.5004 
     61 O         -79.0308   24.8296  -75.4455 O.2       2 UNK        -0.5226 
     62 CA        -81.1818   25.3395  -74.4925 C.3       2 UNK         0.0269 
     63 CB        -81.4922   24.4445  -73.2799 C.3       2 UNK        -0.1926 
     64 N         -80.5997   26.5859  -74.0012 N.am      2 UNK        -0.4687 
     65 C         -80.5709   27.7397  -74.6770 C.2       1 UNK         0.5165 
     66 O         -81.0272   27.8833  -75.8142 O.2       1 UNK        -0.5079 
     67 H67       -77.0767   28.3945  -73.8902 H         1 UNK         0.0900 
     68 H68       -76.2190   28.4355  -75.4080 H         1 UNK         0.0900 
     69 H69       -77.6796   27.4549  -75.2739 H         1 UNK         0.0900 
     70 H70       -79.7841   30.5997  -75.2116 H         1 UNK         0.2959 
     71 H71       -79.2149   28.5500  -73.2310 H         1 UNK         0.1079 
     72 H72       -80.5169   30.6018  -72.6376 H         1 UNK         0.0837 
     73 H73       -81.7630   30.1493  -73.7652 H         1 UNK         0.0837 
     74 H74       -80.8039   30.1054  -70.0791 H         1 UNK         0.0685 
     75 H75       -81.2094   28.5129  -69.4876 H         1 UNK         0.0685 
     76 H76       -79.8903   26.4892  -70.6668 H         1 UNK         0.1434 
     77 H77       -75.7295   27.3978  -71.2584 H         1 UNK         0.1329 
     78 H78       -78.5141   30.5458  -70.5051 H         1 UNK         0.1335 
     79 H79       -74.9067   29.5905  -70.9399 H         1 UNK         0.0680 
     80 H80       -75.9186   30.7311  -70.0787 H         1 UNK         0.0680 
     81 H81       -74.1788   32.1343  -71.2400 H         1 UNK         0.1032 
     82 H82       -74.9479   33.2269  -72.3555 H         1 UNK         0.1032 
     83 H83       -73.8924   31.9503  -74.2918 H         1 UNK         0.0461 
     84 H84       -71.9892   34.9325  -73.9659 H         1 UNK         0.3453 
     85 H85       -73.4917   34.2524  -74.5331 H         1 UNK         0.3453 
     86 H86       -72.0131   30.6837  -72.4190 H         1 UNK         0.2984 
     87 H87       -71.0553   28.7359  -73.2782 H         1 UNK         0.0554 
     88 H88       -71.9544   26.6948  -72.0739 H         1 UNK         0.0847 
     89 H89       -73.5984   27.2305  -72.4097 H         1 UNK         0.0847 
     90 H90       -72.5565   28.1857  -71.3678 H         1 UNK         0.0847 
     91 H91       -72.9678   27.3203  -75.0522 H         1 UNK         0.3141 
     92 H92       -70.5922   26.9147  -77.5044 H         1 UNK         0.0743 
     93 H93       -71.6706   24.5420  -75.8936 H         1 UNK         0.0784 
     94 H94       -71.3261   24.5014  -77.6234 H         1 UNK         0.0784 
     95 H95       -70.0289   24.7712  -76.4691 H         1 UNK         0.0784 
     96 H96       -73.3594   26.0781  -77.0519 H         1 UNK         0.3213 
     97 H97       -74.8427   28.9147  -77.2372 H         1 UNK         0.0855 
     98 H98       -74.2975   29.9019  -79.4021 H         1 UNK         0.0814 
     99 H99       -75.8709   29.1343  -79.5091 H         1 UNK         0.0814 
    100 H100      -74.4542   28.3565  -80.2177 H         1 UNK         0.0814 
    101 H101      -76.0134   27.0463  -77.0624 H         1 UNK         0.3105 
    102 H102      -77.3996   25.1332  -78.4958 H         1 UNK         0.0547 
    103 H103      -76.1249   23.5817  -79.9615 H         1 UNK         0.0837 
    104 H104      -75.0867   23.1255  -78.6175 H         1 UNK         0.0837 
    105 H105      -76.7992   22.7150  -78.5995 H         1 UNK         0.0837 
    106 H106      -77.4075   24.5974  -76.3302 H         1 UNK         0.3020 
    107 H107      -74.8635   23.4804  -74.0878 H         1 UNK         0.1245 
    108 H108      -76.8714   25.7602  -73.7424 H         1 UNK         0.0781 
    109 H109      -75.1391   25.9796  -73.6837 H         1 UNK         0.0781 
    110 H110      -77.7305   24.7664  -70.2299 H         1 UNK         0.0836 
    111 H111      -78.2887   24.8559  -71.8816 H         1 UNK         0.0836 
    112 H112      -77.8082   23.5651  -74.5687 H         1 UNK         0.3022 
    113 H113      -77.9795   20.0320  -74.7136 H         1 UNK         0.0747 
    114 H114      -79.6479   20.2456  -72.8731 H         1 UNK         0.0793 
    115 H115      -78.0150   20.3300  -72.2343 H         1 UNK         0.0793 
    116 H116      -78.9609   21.8016  -72.4023 H         1 UNK         0.0793 
    117 H117      -79.9299   22.1640  -74.6459 H         1 UNK         0.3047 
    118 H118      -79.5341   23.3746  -77.8309 H         1 UNK         0.0822 
    119 H119      -81.8032   22.6358  -78.5249 H         1 UNK         0.0807 
    120 H120      -81.7781   21.3438  -77.3231 H         1 UNK         0.0807 
    121 H121      -80.6631   21.3120  -78.6816 H         1 UNK         0.0807 
    122 H122      -81.8190   23.5351  -76.1586 H         1 UNK         0.2946 
    123 H123      -82.1137   25.5702  -75.0146 H         1 UNK         0.1144 
    124 H124      -81.9946   23.5248  -73.5824 H         1 UNK         0.0793 
    125 H125      -82.1538   24.9500  -72.5757 H         1 UNK         0.0793 
    126 H126      -80.5872   24.1604  -72.7413 H         1 UNK         0.0793 
    127 H127      -80.2004   26.5580  -73.0755 H         1 UNK         0.2896 
@<TRIPOS>BOND
     1    1    2 1    
     2    1   67 1    
     3    1   68 1    
     4    1   69 1    
     5    2    3 2    
     6    2    4 am   BACKBONE|DICT|INTERRES
     7    4    5 1    
     8    4   70 1    
     9    5    6 1    
    10    5   65 1    
    11    5   71 1    
    12    6    7 1    
    13    6   72 1    
    14    6   73 1    
    15    7    8 1    
    16    8    9 1    
    17    8   74 1    
    18    8   75 1    
    19    9   10 ar   
    20    9   14 ar   
    21   10   11 ar   
    22   10   76 1    
    23   11   12 ar   
    24   11   48 1    
    25   12   13 ar   
    26   12   77 1    
    27   13   14 ar   
    28   13   15 1    
    29   14   78 1    
    30   15   16 1    
    31   15   79 1    
    32   15   80 1    
    33   16   17 1    
    34   17   18 1    
    35   17   81 1    
    36   17   82 1    
    37   18   19 1    
    38   18   22 1    
    39   18   83 1    
    40   19   20 am   BACKBONE|DICT|INTERRES
    41   19   21 2    
    42   20   84 1    
    43   20   85 1    
    44   22   23 am   BACKBONE|DICT|INTERRES
    45   22   86 1    
    46   23   24 2    
    47   23   25 1    
    48   25   26 1    
    49   25   27 1    
    50   25   87 1    
    51   26   88 1    
    52   26   89 1    
    53   26   90 1    
    54   27   28 am   BACKBONE|DICT|INTERRES
    55   27   91 1    
    56   28   29 2    
    57   28   30 1    
    58   30   31 1    
    59   30   32 1    
    60   30   92 1    
    61   31   93 1    
    62   31   94 1    
    63   31   95 1    
    64   32   33 am   BACKBONE|DICT|INTERRES
    65   32   96 1    
    66   33   34 2    
    67   33   35 1    
    68   35   36 1    
    69   35   37 1    
    70   35   97 1    
    71   36   98 1    
    72   36   99 1    
    73   36  100 1    
    74   37   38 am   BACKBONE|DICT|INTERRES
    75   37  101 1    
    76   38   39 2    
    77   38   40 1    
    78   40   41 1    
    79   40   42 1    
    80   40  102 1    
    81   41  103 1    
    82   41  104 1    
    83   41  105 1    
    84   42   43 am   BACKBONE|DICT|INTERRES
    85   42  106 1    
    86   43   44 2    
    87   43   45 1    
    88   45   46 1    
    89   45   49 1    
    90   45  107 1    
    91   46   47 1    
    92   46  108 1    
    93   46  109 1    
    94   47   48 1    
    95   48  110 1    
    96   48  111 1    
    97   49   50 am   BACKBONE|DICT|INTERRES
    98   49  112 1    
    99   50   51 2    
   100   50   52 1    
   101   52   53 1    
   102   52   54 1    
   103   52  113 1    
   104   53  114 1    
   105   53  115 1    
   106   53  116 1    
   107   54   55 am   BACKBONE|DICT|INTERRES
   108   54  117 1    
   109   55   56 2    
   110   55   57 1    
   111   57   58 1    
   112   57   59 1    
   113   57  118 1    
   114   58  119 1    
   115   58  120 1    
   116   58  121 1    
   117   59   60 am   BACKBONE|DICT|INTERRES
   118   59  122 1    
   119   60   61 2    
   120   60   62 1    
   121   62   63 1    
   122   62   64 1    
   123   62  123 1    
   124   63  124 1    
   125   63  125 1    
   126   63  126 1    
   127   64   65 am   BACKBONE|DICT|INTERRES
   128   64  127 1    
   129   65   66 2    
@<TRIPOS>SUBSTRUCTURE
     1 UNK         1 GROUP             0       ****    0 ROOT    
