@<TRIPOS>MOLECULE
3R135
127   129    1
SMALL
USER_CHARGES


@<TRIPOS>ATOM
      1 CA        -82.3093   29.2971  -76.4000 C.3       0 UNK        -0.1998 
      2 C         -81.4546   28.2567  -75.6937 C.2       0 UNK         0.4909 
      3 O         -80.6354   27.6019  -76.3380 O.2       0 UNK        -0.5240 
      4 N         -81.6510   28.0911  -74.3775 N.am      1 UNK        -0.4739 
      5 CA        -80.8955   27.1943  -73.4863 C.3       1 UNK         0.0864 
      6 C6        -81.3882   27.2804  -72.0181 C.3       11 UNK        -0.0881 
      7 S7        -81.5453   28.9943  -71.4045 S.3       11 UNK        -0.2682 
      8 C8        -80.4377   29.0024  -69.9606 C.3       11 UNK         0.0289 
      9 C9        -78.9694   29.0251  -70.3585 C.ar      11 UNK        -0.0687 
     10 C10       -78.1454   27.9284  -70.0873 C.ar      11 UNK        -0.0823 
     11 C11       -76.7882   27.9586  -70.4292 C.ar      11 UNK        -0.0830 
     12 C12       -76.2580   29.1145  -71.0064 C.ar      11 UNK        -0.1021 
     13 C13       -77.0691   30.2158  -71.2945 C.ar      11 UNK        -0.0753 
     14 C14       -78.4274   30.1613  -70.9685 C.ar      11 UNK        -0.0933 
     15 C15       -76.4784   31.4754  -71.9214 C.3       11 UNK         0.0166 
     16 S16       -75.9343   31.2174  -73.6439 S.3       11 UNK        -0.2615 
     17 C17       -74.2986   30.4456  -73.3904 C.3       11 UNK        -0.0865 
     18 CA        -73.2409   30.8000  -74.4659 C.3       10 UNK         0.0862 
     19 C         -72.6950   32.2479  -74.2784 C.2       10 UNK         0.5551 
     20 N         -71.5373   32.4340  -73.6547 N.am      10 UNK        -0.7319 
     21 O         -73.3202   33.2106  -74.7154 O.2       10 UNK        -0.5018 
     22 N         -72.2092   29.7505  -74.5011 N.am      10 UNK        -0.4509 
     23 C         -71.2324   29.6398  -75.4109 C.2       10 UNK         0.4899 
     24 O         -71.0749   30.3995  -76.3666 O.2       10 UNK        -0.4839 
     25 CA        -70.2778   28.4593  -75.2124 C.3       9 UNK         0.0222 
     26 CB        -69.4592   28.6350  -73.9134 C.3       9 UNK        -0.1966 
     27 N         -71.0448   27.2114  -75.2241 N.am      9 UNK        -0.4218 
     28 C         -70.5349   25.9722  -75.1888 C.2       9 UNK         0.5020 
     29 O         -69.3335   25.7226  -75.0796 O.2       9 UNK        -0.5274 
     30 CA        -71.5255   24.7987  -75.3127 C.3       8 UNK         0.0270 
     31 CB        -72.0173   24.3621  -73.9230 C.3       8 UNK        -0.1976 
     32 N         -72.6776   25.0777  -76.1751 N.am      8 UNK        -0.4313 
     33 C         -72.6078   25.3676  -77.4829 C.2       8 UNK         0.5041 
     34 O         -71.5561   25.3946  -78.1236 O.2       8 UNK        -0.5577 
     35 CA        -73.9267   25.6889  -78.2069 C.3       7 UNK         0.0284 
     36 CB        -74.4702   24.4330  -78.9069 C.3       7 UNK        -0.1958 
     37 N         -74.9645   26.2498  -77.3362 N.am      7 UNK        -0.4454 
     38 C         -74.8892   27.4320  -76.7092 C.2       7 UNK         0.5089 
     39 O         -73.9211   28.1857  -76.7910 O.2       7 UNK        -0.5125 
     40 CA        -76.0752   27.8193  -75.8107 C.3       6 UNK         0.0408 
     41 CB        -77.2532   28.3572  -76.6368 C.3       6 UNK        -0.1791 
     42 N         -76.5191   26.7031  -74.9757 N.am      6 UNK        -0.4762 
     43 C         -75.8305   26.2155  -73.9318 C.2       6 UNK         0.5007 
     44 O         -74.7767   26.7027  -73.5223 O.2       6 UNK        -0.5032 
     45 CA        -76.3888   24.9369  -73.2715 C.3       5 UNK         0.0783 
     46 C46       -77.3532   25.2604  -72.1002 C.3       11 UNK        -0.0857 
     47 S47       -76.5947   25.1279  -70.4467 S.3       11 UNK        -0.2512 
     48 C48       -75.8576   26.7753  -70.1706 C.3       11 UNK         0.0225 
     49 N         -77.0159   24.0544  -74.2638 N.am      5 UNK        -0.4615 
     50 C         -76.3244   23.3579  -75.1765 C.2       4 UNK         0.5053 
     51 O         -75.0993   23.4092  -75.2850 O.2       4 UNK        -0.5105 
     52 CA        -77.1237   22.4691  -76.1427 C.3       4 UNK         0.0263 
     53 CB        -77.4930   21.1383  -75.4689 C.3       4 UNK        -0.1981 
     54 N         -78.3351   23.0935  -76.6779 N.am      4 UNK        -0.4224 
     55 C         -78.3887   24.2245  -77.3919 C.2       3 UNK         0.4895 
     56 O         -77.4101   24.9323  -77.6179 O.2       3 UNK        -0.5091 
     57 CA        -79.7592   24.6531  -77.9427 C.3       3 UNK         0.0250 
     58 CB        -80.1470   23.8382  -79.1919 C.3       3 UNK        -0.1996 
     59 N         -80.8221   24.6597  -76.9316 N.am      3 UNK        -0.4254 
     60 C         -81.3619   23.6270  -76.2642 C.2       2 UNK         0.5004 
     61 O         -81.0925   22.4474  -76.4995 O.2       2 UNK        -0.5226 
     62 CA        -82.3216   23.9737  -75.1055 C.3       2 UNK         0.0269 
     63 CB        -82.3403   22.8816  -74.0145 C.3       2 UNK        -0.1926 
     64 N         -82.0639   25.2904  -74.5024 N.am      2 UNK        -0.4687 
     65 C         -80.9144   25.7243  -73.9569 C.2       1 UNK         0.5165 
     66 O         -79.8942   25.0407  -73.8689 O.2       1 UNK        -0.5079 
     67 H67       -82.9929   29.7976  -75.7145 H         1 UNK         0.0900 
     68 H68       -81.6732   30.0539  -76.8580 H         1 UNK         0.0900 
     69 H69       -82.8993   28.8265  -77.1860 H         1 UNK         0.0900 
     70 H70       -82.3300   28.6730  -73.9064 H         1 UNK         0.2959 
     71 H71       -79.8548   27.5254  -73.5158 H         1 UNK         0.1079 
     72 H72       -80.7164   26.7194  -71.3653 H         1 UNK         0.0837 
     73 H73       -82.3686   26.8110  -71.9135 H         1 UNK         0.0837 
     74 H74       -80.6530   29.8888  -69.3622 H         1 UNK         0.0685 
     75 H75       -80.6627   28.1452  -69.3239 H         1 UNK         0.0685 
     76 H76       -78.5606   27.0495  -69.6136 H         1 UNK         0.1434 
     77 H77       -75.2034   29.1493  -71.2302 H         1 UNK         0.1329 
     78 H78       -79.0666   31.0088  -71.1754 H         1 UNK         0.1335 
     79 H79       -77.2187   32.2769  -71.9203 H         1 UNK         0.0680 
     80 H80       -75.6482   31.8370  -71.3134 H         1 UNK         0.0680 
     81 H81       -73.9146   30.6902  -72.3984 H         1 UNK         0.1032 
     82 H82       -74.4678   29.3686  -73.3846 H         1 UNK         0.1032 
     83 H83       -73.7304   30.7719  -75.4416 H         1 UNK         0.0461 
     84 H84       -71.0139   31.6495  -73.3018 H         1 UNK         0.3453 
     85 H85       -71.1822   33.3704  -73.5419 H         1 UNK         0.3453 
     86 H86       -72.2385   29.0773  -73.7501 H         1 UNK         0.2984 
     87 H87       -69.5897   28.4406  -76.0600 H         1 UNK         0.0554 
     88 H88       -68.6386   27.9207  -73.8541 H         1 UNK         0.0847 
     89 H89       -70.0733   28.5077  -73.0216 H         1 UNK         0.0847 
     90 H90       -69.0115   29.6287  -73.8644 H         1 UNK         0.0847 
     91 H91       -72.0404   27.3138  -75.3838 H         1 UNK         0.3141 
     92 H92       -70.9840   23.9618  -75.7583 H         1 UNK         0.0743 
     93 H93       -71.1775   24.1110  -73.2736 H         1 UNK         0.0784 
     94 H94       -72.5858   25.1503  -73.4290 H         1 UNK         0.0784 
     95 H95       -72.6522   23.4781  -73.9850 H         1 UNK         0.0784 
     96 H96       -73.5960   24.9874  -75.7565 H         1 UNK         0.3213 
     97 H97       -73.7021   26.4356  -78.9715 H         1 UNK         0.0855 
     98 H98       -74.7431   23.6598  -78.1879 H         1 UNK         0.0814 
     99 H99       -73.7256   24.0060  -79.5800 H         1 UNK         0.0814 
    100 H100      -75.3528   24.6618  -79.5044 H         1 UNK         0.0814 
    101 H101      -75.8317   25.7179  -77.2678 H         1 UNK         0.3105 
    102 H102      -75.7433   28.6229  -75.1544 H         1 UNK         0.0547 
    103 H103      -76.9398   29.1953  -77.2605 H         1 UNK         0.0837 
    104 H104      -77.6740   27.5982  -77.2966 H         1 UNK         0.0837 
    105 H105      -78.0539   28.7183  -75.9911 H         1 UNK         0.0837 
    106 H106      -77.3521   26.2141  -75.2718 H         1 UNK         0.3020 
    107 H107      -75.5281   24.3951  -72.8713 H         1 UNK         0.1245 
    108 H108      -78.1606   24.5279  -72.0749 H         1 UNK         0.0781 
    109 H109      -77.8551   26.2199  -72.2311 H         1 UNK         0.0781 
    110 H110      -74.9682   26.8503  -70.7981 H         1 UNK         0.0836 
    111 H111      -75.5068   26.8297  -69.1394 H         1 UNK         0.0836 
    112 H112      -78.0289   24.0095  -74.2537 H         1 UNK         0.3022 
    113 H113      -76.4745   22.2489  -76.9923 H         1 UNK         0.0747 
    114 H114      -77.9581   20.4516  -76.1764 H         1 UNK         0.0793 
    115 H115      -76.6066   20.6414  -75.0716 H         1 UNK         0.0793 
    116 H116      -78.1863   21.2844  -74.6394 H         1 UNK         0.0793 
    117 H117      -79.2149   22.6031  -76.5349 H         1 UNK         0.3047 
    118 H118      -79.6538   25.6937  -78.2547 H         1 UNK         0.0822 
    119 H119      -81.0894   24.1867  -79.6142 H         1 UNK         0.0807 
    120 H120      -80.2491   22.7744  -78.9766 H         1 UNK         0.0807 
    121 H121      -79.3874   23.9376  -79.9684 H         1 UNK         0.0807 
    122 H122      -81.0630   25.5918  -76.6091 H         1 UNK         0.2946 
    123 H123      -83.3183   24.0208  -75.5474 H         1 UNK         0.1144 
    124 H124      -81.3531   22.7310  -73.5763 H         1 UNK         0.0793 
    125 H125      -82.6640   21.9233  -74.4228 H         1 UNK         0.0793 
    126 H126      -83.0293   23.1366  -73.2094 H         1 UNK         0.0793 
    127 H127      -82.8275   25.9513  -74.5513 H         1 UNK         0.2896 
@<TRIPOS>BOND
     1    1    2 1    
     2    1   67 1    
     3    1   68 1    
     4    1   69 1    
     5    2    3 2    
     6    2    4 am   BACKBONE|DICT|INTERRES
     7    4    5 1    
     8    4   70 1    
     9    5    6 1    
    10    5   65 1    
    11    5   71 1    
    12    6    7 1    
    13    6   72 1    
    14    6   73 1    
    15    7    8 1    
    16    8    9 1    
    17    8   74 1    
    18    8   75 1    
    19    9   10 ar   
    20    9   14 ar   
    21   10   11 ar   
    22   10   76 1    
    23   11   12 ar   
    24   11   48 1    
    25   12   13 ar   
    26   12   77 1    
    27   13   14 ar   
    28   13   15 1    
    29   14   78 1    
    30   15   16 1    
    31   15   79 1    
    32   15   80 1    
    33   16   17 1    
    34   17   18 1    
    35   17   81 1    
    36   17   82 1    
    37   18   19 1    
    38   18   22 1    
    39   18   83 1    
    40   19   20 am   BACKBONE|DICT|INTERRES
    41   19   21 2    
    42   20   84 1    
    43   20   85 1    
    44   22   23 am   BACKBONE|DICT|INTERRES
    45   22   86 1    
    46   23   24 2    
    47   23   25 1    
    48   25   26 1    
    49   25   27 1    
    50   25   87 1    
    51   26   88 1    
    52   26   89 1    
    53   26   90 1    
    54   27   28 am   BACKBONE|DICT|INTERRES
    55   27   91 1    
    56   28   29 2    
    57   28   30 1    
    58   30   31 1    
    59   30   32 1    
    60   30   92 1    
    61   31   93 1    
    62   31   94 1    
    63   31   95 1    
    64   32   33 am   BACKBONE|DICT|INTERRES
    65   32   96 1    
    66   33   34 2    
    67   33   35 1    
    68   35   36 1    
    69   35   37 1    
    70   35   97 1    
    71   36   98 1    
    72   36   99 1    
    73   36  100 1    
    74   37   38 am   BACKBONE|DICT|INTERRES
    75   37  101 1    
    76   38   39 2    
    77   38   40 1    
    78   40   41 1    
    79   40   42 1    
    80   40  102 1    
    81   41  103 1    
    82   41  104 1    
    83   41  105 1    
    84   42   43 am   BACKBONE|DICT|INTERRES
    85   42  106 1    
    86   43   44 2    
    87   43   45 1    
    88   45   46 1    
    89   45   49 1    
    90   45  107 1    
    91   46   47 1    
    92   46  108 1    
    93   46  109 1    
    94   47   48 1    
    95   48  110 1    
    96   48  111 1    
    97   49   50 am   BACKBONE|DICT|INTERRES
    98   49  112 1    
    99   50   51 2    
   100   50   52 1    
   101   52   53 1    
   102   52   54 1    
   103   52  113 1    
   104   53  114 1    
   105   53  115 1    
   106   53  116 1    
   107   54   55 am   BACKBONE|DICT|INTERRES
   108   54  117 1    
   109   55   56 2    
   110   55   57 1    
   111   57   58 1    
   112   57   59 1    
   113   57  118 1    
   114   58  119 1    
   115   58  120 1    
   116   58  121 1    
   117   59   60 am   BACKBONE|DICT|INTERRES
   118   59  122 1    
   119   60   61 2    
   120   60   62 1    
   121   62   63 1    
   122   62   64 1    
   123   62  123 1    
   124   63  124 1    
   125   63  125 1    
   126   63  126 1    
   127   64   65 am   BACKBONE|DICT|INTERRES
   128   64  127 1    
   129   65   66 2    
@<TRIPOS>SUBSTRUCTURE
     1 UNK         1 GROUP             0       ****    0 ROOT    
