@<TRIPOS>MOLECULE
3R135
127   129    1
SMALL
USER_CHARGES


@<TRIPOS>ATOM
      1 CA        -79.3369   24.1671  -71.9633 C.3       0 UNK        -0.1998 
      2 C         -80.4847   24.8617  -72.6763 C.2       0 UNK         0.4909 
      3 O         -81.2058   24.2170  -73.4380 O.2       0 UNK        -0.5240 
      4 N         -80.6597   26.1675  -72.4323 N.am      1 UNK        -0.4739 
      5 CA        -81.7618   26.9972  -72.9360 C.3       1 UNK         0.0864 
      6 C6        -81.7341   28.4348  -72.3547 C.3       11 UNK        -0.0881 
      7 S7        -81.5511   28.4686  -70.5363 S.3       11 UNK        -0.2682 
      8 C8        -80.3472   29.8165  -70.2914 C.3       11 UNK         0.0289 
      9 C9        -78.9845   29.5192  -70.9066 C.ar      11 UNK        -0.0687 
     10 C10       -78.1113   28.6175  -70.2938 C.ar      11 UNK        -0.0823 
     11 C11       -76.8490   28.3695  -70.8418 C.ar      11 UNK        -0.0830 
     12 C12       -76.4677   29.0189  -72.0199 C.ar      11 UNK        -0.1021 
     13 C13       -77.3278   29.9347  -72.6421 C.ar      11 UNK        -0.0753 
     14 C14       -78.5816   30.1759  -72.0728 C.ar      11 UNK        -0.0933 
     15 C15       -76.9762   30.6898  -73.9257 C.3       11 UNK         0.0166 
     16 S16       -75.3318   30.3595  -74.6418 S.3       11 UNK        -0.2615 
     17 C17       -74.2247   31.5052  -73.7327 C.3       11 UNK        -0.0865 
     18 CA        -72.9776   30.8432  -73.0628 C.3       10 UNK         0.0862 
     19 C         -73.1704   30.5503  -71.5473 C.2       10 UNK         0.5551 
     20 N         -73.3834   31.5824  -70.7420 N.am      10 UNK        -0.7319 
     21 O         -73.1257   29.4112  -71.0898 O.2       10 UNK        -0.5018 
     22 N         -72.5134   29.6844  -73.8335 N.am      10 UNK        -0.4509 
     23 C         -71.3296   29.0674  -73.7514 C.2       10 UNK         0.4899 
     24 O         -70.3898   29.4658  -73.0628 O.2       10 UNK        -0.4839 
     25 CA        -71.1675   27.7839  -74.5921 C.3       9 UNK         0.0222 
     26 CB        -71.2335   26.5465  -73.6867 C.3       9 UNK        -0.1966 
     27 N         -72.1845   27.6746  -75.6478 N.am      9 UNK        -0.4218 
     28 C         -72.1440   28.3822  -76.7852 C.2       9 UNK         0.5020 
     29 O         -71.1677   29.0418  -77.1485 O.2       9 UNK        -0.5274 
     30 CA        -73.4386   28.3990  -77.6100 C.3       8 UNK         0.0270 
     31 CB        -73.3607   29.2902  -78.8693 C.3       8 UNK        -0.1976 
     32 N         -73.9381   27.0585  -77.9265 N.am      8 UNK        -0.4313 
     33 C         -73.4078   26.1686  -78.7740 C.2       8 UNK         0.5041 
     34 O         -72.3186   26.3028  -79.3354 O.2       8 UNK        -0.5577 
     35 CA        -74.2961   24.9508  -79.0820 C.3       7 UNK         0.0284 
     36 CB        -73.7467   24.0707  -80.2269 C.3       7 UNK        -0.1958 
     37 N         -74.6095   24.1450  -77.8985 N.am      7 UNK        -0.4454 
     38 C         -73.7635   23.4029  -77.1711 C.2       7 UNK         0.5089 
     39 O         -72.5409   23.3823  -77.3227 O.2       7 UNK        -0.5125 
     40 CA        -74.4333   22.4975  -76.1233 C.3       6 UNK         0.0408 
     41 CB        -73.4768   21.4504  -75.5109 C.3       6 UNK        -0.1791 
     42 N         -75.1287   23.2746  -75.0945 N.am      6 UNK        -0.4762 
     43 C         -74.5814   24.0364  -74.1353 C.2       6 UNK         0.5007 
     44 O         -73.3705   24.1694  -73.9652 O.2       6 UNK        -0.5032 
     45 CA        -75.5885   24.7628  -73.2165 C.3       5 UNK         0.0783 
     46 C46       -74.9376   25.5715  -72.0630 C.3       11 UNK        -0.0857 
     47 S47       -76.0898   25.7080  -70.6538 S.3       11 UNK        -0.2512 
     48 C48       -75.8846   27.4334  -70.1294 C.3       11 UNK         0.0225 
     49 N         -76.5616   25.5474  -73.9881 N.am      5 UNK        -0.4615 
     50 C         -76.3011   26.4851  -74.9119 C.2       4 UNK         0.5053 
     51 O         -75.1678   26.8673  -75.2144 O.2       4 UNK        -0.5105 
     52 CA        -77.5348   27.0442  -75.6521 C.3       4 UNK         0.0263 
     53 CB        -77.1858   27.8103  -76.9435 C.3       4 UNK        -0.1981 
     54 N         -78.5568   26.0278  -75.9425 N.am      4 UNK        -0.4224 
     55 C         -78.3946   24.8727  -76.6130 C.2       3 UNK         0.4895 
     56 O         -77.3115   24.4862  -77.0569 O.2       3 UNK        -0.5091 
     57 CA        -79.6268   23.9665  -76.7974 C.3       3 UNK         0.0250 
     58 CB        -79.4541   22.6587  -76.0067 C.3       3 UNK        -0.1996 
     59 N         -80.8828   24.6093  -76.3987 N.am      3 UNK        -0.4254 
     60 C         -81.5893   25.4370  -77.1842 C.2       2 UNK         0.5004 
     61 O         -81.3021   25.6734  -78.3579 O.2       2 UNK        -0.5226 
     62 CA        -82.8059   26.1468  -76.5564 C.3       2 UNK         0.0269 
     63 CB        -84.1013   25.3907  -76.8930 C.3       2 UNK        -0.1926 
     64 N         -82.7141   26.3230  -75.1019 N.am      2 UNK        -0.4687 
     65 C         -81.7631   27.0311  -74.4766 C.2       1 UNK         0.5165 
     66 O         -80.8702   27.6405  -75.0679 O.2       1 UNK        -0.5079 
     67 H67       -79.7247   23.3799  -71.3174 H         1 UNK         0.0900 
     68 H68       -78.6606   23.7091  -72.6826 H         1 UNK         0.0900 
     69 H69       -78.7706   24.8600  -71.3432 H         1 UNK         0.0900 
     70 H70       -80.0318   26.6457  -71.8012 H         1 UNK         0.2959 
     71 H71       -82.6891   26.5268  -72.6019 H         1 UNK         0.1079 
     72 H72       -82.6556   28.9610  -72.6104 H         1 UNK         0.0837 
     73 H73       -80.9293   29.0120  -72.8093 H         1 UNK         0.0837 
     74 H74       -80.2264   29.9866  -69.2206 H         1 UNK         0.0685 
     75 H75       -80.7616   30.7403  -70.6985 H         1 UNK         0.0685 
     76 H76       -78.4113   28.1184  -69.3822 H         1 UNK         0.1434 
     77 H77       -75.4922   28.8113  -72.4339 H         1 UNK         0.1329 
     78 H78       -79.2512   30.8825  -72.5442 H         1 UNK         0.1335 
     79 H79       -77.0841   31.7625  -73.7592 H         1 UNK         0.0680 
     80 H80       -77.7161   30.4243  -74.6822 H         1 UNK         0.0680 
     81 H81       -73.8744   32.2332  -74.4658 H         1 UNK         0.1032 
     82 H82       -74.8064   32.0902  -73.0183 H         1 UNK         0.1032 
     83 H83       -72.1660   31.5723  -73.1048 H         1 UNK         0.0461 
     84 H84       -73.5101   31.4117  -69.7568 H         1 UNK         0.3453 
     85 H85       -73.4052   32.5272  -71.0920 H         1 UNK         0.3453 
     86 H86       -73.2266   29.2626  -74.4101 H         1 UNK         0.2984 
     87 H87       -70.1788   27.8112  -75.0550 H         1 UNK         0.0554 
     88 H88       -70.4562   26.5789  -72.9222 H         1 UNK         0.0847 
     89 H89       -71.0887   25.6288  -74.2571 H         1 UNK         0.0847 
     90 H90       -72.1920   26.4770  -73.1719 H         1 UNK         0.0847 
     91 H91       -73.0348   27.1649  -75.4264 H         1 UNK         0.3141 
     92 H92       -74.1879   28.8489  -76.9599 H         1 UNK         0.0743 
     93 H93       -72.5960   28.9474  -79.5667 H         1 UNK         0.0784 
     94 H94       -74.3134   29.3133  -79.3983 H         1 UNK         0.0784 
     95 H95       -73.1151   30.3186  -78.6014 H         1 UNK         0.0784 
     96 H96       -74.7697   26.7880  -77.4162 H         1 UNK         0.3213 
     97 H97       -75.2503   25.3539  -79.4263 H         1 UNK         0.0855 
     98 H98       -72.7732   23.6436  -79.9841 H         1 UNK         0.0814 
     99 H99       -73.6227   24.6551  -81.1394 H         1 UNK         0.0814 
    100 H100      -74.4256   23.2502  -80.4582 H         1 UNK         0.0814 
    101 H101      -75.5931   24.1392  -77.6279 H         1 UNK         0.3105 
    102 H102      -75.2100   21.9420  -76.6517 H         1 UNK         0.0547 
    103 H103      -73.9914   20.8142  -74.7912 H         1 UNK         0.0837 
    104 H104      -72.6275   21.9110  -75.0059 H         1 UNK         0.0837 
    105 H105      -73.0711   20.8002  -76.2867 H         1 UNK         0.0837 
    106 H106      -76.1346   23.2985  -75.1902 H         1 UNK         0.3020 
    107 H107      -76.1483   23.9458  -72.7580 H         1 UNK         0.1245 
    108 H108      -74.6191   26.5565  -72.4068 H         1 UNK         0.0781 
    109 H109      -74.0429   25.0776  -71.6800 H         1 UNK         0.0781 
    110 H110      -74.8523   27.7443  -70.2823 H         1 UNK         0.0836 
    111 H111      -76.0520   27.4893  -69.0528 H         1 UNK         0.0836 
    112 H112      -77.5301   25.3210  -73.8280 H         1 UNK         0.3022 
    113 H113      -77.9941   27.7554  -74.9635 H         1 UNK         0.0747 
    114 H114      -78.0779   28.2577  -77.3818 H         1 UNK         0.0793 
    115 H115      -76.4903   28.6244  -76.7465 H         1 UNK         0.0793 
    116 H116      -76.7413   27.1599  -77.6958 H         1 UNK         0.0793 
    117 H117      -79.4938   26.2828  -75.6474 H         1 UNK         0.3047 
    118 H118      -79.6795   23.7112  -77.8580 H         1 UNK         0.0822 
    119 H119      -80.3006   21.9893  -76.1606 H         1 UNK         0.0807 
    120 H120      -79.3621   22.8387  -74.9360 H         1 UNK         0.0807 
    121 H121      -78.5590   22.1228  -76.3256 H         1 UNK         0.0807 
    122 H122      -81.1845   24.4658  -75.4385 H         1 UNK         0.2946 
    123 H123      -82.8608   27.1408  -77.0065 H         1 UNK         0.1144 
    124 H124      -84.9801   25.9303  -76.5396 H         1 UNK         0.0793 
    125 H125      -84.1148   24.3951  -76.4473 H         1 UNK         0.0793 
    126 H126      -84.2122   25.2665  -77.9713 H         1 UNK         0.0793 
    127 H127      -83.3809   25.8078  -74.5443 H         1 UNK         0.2896 
@<TRIPOS>BOND
     1    1    2 1    
     2    1   67 1    
     3    1   68 1    
     4    1   69 1    
     5    2    3 2    
     6    2    4 am   BACKBONE|DICT|INTERRES
     7    4    5 1    
     8    4   70 1    
     9    5    6 1    
    10    5   65 1    
    11    5   71 1    
    12    6    7 1    
    13    6   72 1    
    14    6   73 1    
    15    7    8 1    
    16    8    9 1    
    17    8   74 1    
    18    8   75 1    
    19    9   10 ar   
    20    9   14 ar   
    21   10   11 ar   
    22   10   76 1    
    23   11   12 ar   
    24   11   48 1    
    25   12   13 ar   
    26   12   77 1    
    27   13   14 ar   
    28   13   15 1    
    29   14   78 1    
    30   15   16 1    
    31   15   79 1    
    32   15   80 1    
    33   16   17 1    
    34   17   18 1    
    35   17   81 1    
    36   17   82 1    
    37   18   19 1    
    38   18   22 1    
    39   18   83 1    
    40   19   20 am   BACKBONE|DICT|INTERRES
    41   19   21 2    
    42   20   84 1    
    43   20   85 1    
    44   22   23 am   BACKBONE|DICT|INTERRES
    45   22   86 1    
    46   23   24 2    
    47   23   25 1    
    48   25   26 1    
    49   25   27 1    
    50   25   87 1    
    51   26   88 1    
    52   26   89 1    
    53   26   90 1    
    54   27   28 am   BACKBONE|DICT|INTERRES
    55   27   91 1    
    56   28   29 2    
    57   28   30 1    
    58   30   31 1    
    59   30   32 1    
    60   30   92 1    
    61   31   93 1    
    62   31   94 1    
    63   31   95 1    
    64   32   33 am   BACKBONE|DICT|INTERRES
    65   32   96 1    
    66   33   34 2    
    67   33   35 1    
    68   35   36 1    
    69   35   37 1    
    70   35   97 1    
    71   36   98 1    
    72   36   99 1    
    73   36  100 1    
    74   37   38 am   BACKBONE|DICT|INTERRES
    75   37  101 1    
    76   38   39 2    
    77   38   40 1    
    78   40   41 1    
    79   40   42 1    
    80   40  102 1    
    81   41  103 1    
    82   41  104 1    
    83   41  105 1    
    84   42   43 am   BACKBONE|DICT|INTERRES
    85   42  106 1    
    86   43   44 2    
    87   43   45 1    
    88   45   46 1    
    89   45   49 1    
    90   45  107 1    
    91   46   47 1    
    92   46  108 1    
    93   46  109 1    
    94   47   48 1    
    95   48  110 1    
    96   48  111 1    
    97   49   50 am   BACKBONE|DICT|INTERRES
    98   49  112 1    
    99   50   51 2    
   100   50   52 1    
   101   52   53 1    
   102   52   54 1    
   103   52  113 1    
   104   53  114 1    
   105   53  115 1    
   106   53  116 1    
   107   54   55 am   BACKBONE|DICT|INTERRES
   108   54  117 1    
   109   55   56 2    
   110   55   57 1    
   111   57   58 1    
   112   57   59 1    
   113   57  118 1    
   114   58  119 1    
   115   58  120 1    
   116   58  121 1    
   117   59   60 am   BACKBONE|DICT|INTERRES
   118   59  122 1    
   119   60   61 2    
   120   60   62 1    
   121   62   63 1    
   122   62   64 1    
   123   62  123 1    
   124   63  124 1    
   125   63  125 1    
   126   63  126 1    
   127   64   65 am   BACKBONE|DICT|INTERRES
   128   64  127 1    
   129   65   66 2    
@<TRIPOS>SUBSTRUCTURE
     1 UNK         1 GROUP             0       ****    0 ROOT    
