@<TRIPOS>MOLECULE
3R135
127   129    1
SMALL
USER_CHARGES


@<TRIPOS>ATOM
      1 CA        -83.4036   28.9544  -71.6344 C.3       0 UNK        -0.1998 
      2 C         -83.0719   28.6804  -73.0939 C.2       0 UNK         0.4909 
      3 O         -83.9812   28.5438  -73.9138 O.2       0 UNK        -0.5240 
      4 N         -81.7762   28.6120  -73.4236 N.am      1 UNK        -0.4739 
      5 CA        -81.2645   28.3133  -74.7686 C.3       1 UNK         0.0864 
      6 C6        -79.7782   28.7378  -74.9580 C.3       11 UNK        -0.0881 
      7 S7        -79.3899   30.3938  -74.2798 S.3       11 UNK        -0.2682 
      8 C8        -77.5989   30.2747  -73.9127 C.3       11 UNK         0.0289 
      9 C9        -77.1900   29.4407  -72.6925 C.ar      11 UNK        -0.0687 
     10 C10       -78.0718   28.5927  -72.0132 C.ar      11 UNK        -0.0823 
     11 C11       -77.6171   27.7459  -70.9993 C.ar      11 UNK        -0.0830 
     12 C12       -76.2846   27.8121  -70.5898 C.ar      11 UNK        -0.1021 
     13 C13       -75.3983   28.6868  -71.2206 C.ar      11 UNK        -0.0753 
     14 C14       -75.8551   29.4844  -72.2767 C.ar      11 UNK        -0.0933 
     15 C15       -73.9360   28.7217  -70.8040 C.3       11 UNK         0.0166 
     16 S16       -73.4210   30.3894  -70.2819 S.3       11 UNK        -0.2615 
     17 C17       -71.6943   30.4191  -70.8720 C.3       11 UNK        -0.0865 
     18 CA        -71.5584   31.0489  -72.2844 C.3       10 UNK         0.0862 
     19 C         -70.0593   31.2015  -72.6773 C.2       10 UNK         0.5551 
     20 N         -69.5510   30.4832  -73.6727 N.am      10 UNK        -0.7319 
     21 O         -69.3457   31.9926  -72.0657 O.2       10 UNK        -0.5018 
     22 N         -72.3644   30.3272  -73.2812 N.am      10 UNK        -0.4509 
     23 C         -72.7658   30.8211  -74.4572 C.2       10 UNK         0.4899 
     24 O         -72.6149   31.9995  -74.7829 O.2       10 UNK        -0.4839 
     25 CA        -73.4531   29.8419  -75.4368 C.3       9 UNK         0.0222 
     26 CB        -73.0637   30.1549  -76.8969 C.3       9 UNK        -0.1966 
     27 N         -73.2453   28.4096  -75.1540 N.am      9 UNK        -0.4218 
     28 C         -72.0701   27.7622  -75.0719 C.2       9 UNK         0.5020 
     29 O         -70.9706   28.3165  -75.1189 O.2       9 UNK        -0.5274 
     30 CA        -72.1319   26.2370  -74.8966 C.3       8 UNK         0.0270 
     31 CB        -72.5540   25.8640  -73.4650 C.3       8 UNK        -0.1976 
     32 N         -73.0271   25.6029  -75.8663 N.am      8 UNK        -0.4313 
     33 C         -72.8083   25.5540  -77.1893 C.2       8 UNK         0.5041 
     34 O         -71.7828   25.9673  -77.7323 O.2       8 UNK        -0.5577 
     35 CA        -73.9243   24.9518  -78.0618 C.3       7 UNK         0.0284 
     36 CB        -73.7997   23.4220  -78.1266 C.3       7 UNK        -0.1958 
     37 N         -75.2640   25.3339  -77.6051 N.am      7 UNK        -0.4454 
     38 C         -75.7415   26.5857  -77.6636 C.2       7 UNK         0.5089 
     39 O         -75.1381   27.5239  -78.1814 O.2       7 UNK        -0.5125 
     40 CA        -77.1238   26.8468  -77.0443 C.3       6 UNK         0.0408 
     41 CB        -78.2117   26.6387  -78.1070 C.3       6 UNK        -0.1791 
     42 N         -77.3990   26.0310  -75.8550 N.am      6 UNK        -0.4762 
     43 C         -76.7161   26.1223  -74.7031 C.2       6 UNK         0.5007 
     44 O         -75.8118   26.9394  -74.5171 O.2       6 UNK        -0.5032 
     45 CA        -77.0287   25.0625  -73.6216 C.3       5 UNK         0.0783 
     46 C46       -78.3753   25.3057  -72.8803 C.3       11 UNK        -0.0857 
     47 S47       -78.2238   25.0444  -71.0783 S.3       11 UNK        -0.2512 
     48 C48       -78.5525   26.7078  -70.3998 C.3       11 UNK         0.0225 
     49 N         -76.9922   23.7177  -74.1997 N.am      5 UNK        -0.4615 
     50 C         -75.9080   23.1219  -74.7094 C.2       4 UNK         0.5053 
     51 O         -74.7838   23.6198  -74.6890 O.2       4 UNK        -0.5105 
     52 CA        -76.1139   21.7529  -75.3819 C.3       4 UNK         0.0263 
     53 CB        -75.8306   20.6201  -74.3831 C.3       4 UNK        -0.1981 
     54 N         -77.4519   21.5735  -75.9531 N.am      4 UNK        -0.4224 
     55 C         -77.9640   22.2807  -76.9716 C.2       3 UNK         0.4895 
     56 O         -77.3374   23.1562  -77.5722 O.2       3 UNK        -0.5091 
     57 CA        -79.4206   21.9640  -77.3853 C.3       3 UNK         0.0250 
     58 CB        -80.1345   20.9664  -76.4435 C.3       3 UNK        -0.1996 
     59 N         -80.2732   23.1507  -77.5596 N.am      3 UNK        -0.4254 
     60 C         -80.4168   24.1838  -76.7152 C.2       2 UNK         0.5004 
     61 O         -79.7175   24.3458  -75.7153 O.2       2 UNK        -0.5226 
     62 CA        -81.5369   25.1876  -77.0679 C.3       2 UNK         0.0269 
     63 CB        -82.9255   24.5756  -76.7883 C.3       2 UNK        -0.1926 
     64 N         -81.4156   26.5097  -76.4256 N.am      2 UNK        -0.4687 
     65 C         -81.4691   26.8190  -75.1197 C.2       1 UNK         0.5165 
     66 O         -81.6576   25.9987  -74.2170 O.2       1 UNK        -0.5079 
     67 H67       -82.5064   29.0715  -71.0268 H         1 UNK         0.0900 
     68 H68       -83.9870   28.1315  -71.2222 H         1 UNK         0.0900 
     69 H69       -83.9926   29.8672  -71.5482 H         1 UNK         0.0900 
     70 H70       -81.0779   28.7461  -72.7099 H         1 UNK         0.2959 
     71 H71       -81.8648   28.8957  -75.4715 H         1 UNK         0.1079 
     72 H72       -79.1034   28.0054  -74.5197 H         1 UNK         0.0837 
     73 H73       -79.5305   28.7550  -76.0202 H         1 UNK         0.0837 
     74 H74       -77.2237   31.2902  -73.7781 H         1 UNK         0.0685 
     75 H75       -77.0918   29.8745  -74.7921 H         1 UNK         0.0685 
     76 H76       -79.1071   28.5343  -72.3036 H         1 UNK         0.1434 
     77 H77       -75.9334   27.1565  -69.8045 H         1 UNK         0.1329 
     78 H78       -75.1609   30.1366  -72.7859 H         1 UNK         0.1335 
     79 H79       -73.7432   28.0272  -69.9848 H         1 UNK         0.0680 
     80 H80       -73.3352   28.3739  -71.6434 H         1 UNK         0.0680 
     81 H81       -71.1162   30.9953  -70.1466 H         1 UNK         0.1032 
     82 H82       -71.2757   29.4110  -70.8505 H         1 UNK         0.1032 
     83 H83       -71.9543   32.0647  -72.2234 H         1 UNK         0.0461 
     84 H84       -70.1211   29.8111  -74.1778 H         1 UNK         0.3453 
     85 H85       -68.5801   30.5970  -73.9159 H         1 UNK         0.3453 
     86 H86       -72.5079   29.3450  -73.1110 H         1 UNK         0.2984 
     87 H87       -74.5255   30.0123  -75.3351 H         1 UNK         0.0554 
     88 H88       -73.5546   29.4801  -77.5959 H         1 UNK         0.0847 
     89 H89       -71.9878   30.0693  -77.0535 H         1 UNK         0.0847 
     90 H90       -73.3538   31.1686  -77.1757 H         1 UNK         0.0847 
     91 H91       -74.0947   27.8593  -75.0459 H         1 UNK         0.3141 
     92 H92       -71.1274   25.8429  -75.0648 H         1 UNK         0.0743 
     93 H93       -71.8842   26.3130  -72.7304 H         1 UNK         0.0784 
     94 H94       -73.5657   26.1993  -73.2348 H         1 UNK         0.0784 
     95 H95       -72.5217   24.7847  -73.3141 H         1 UNK         0.0784 
     96 H96       -73.8610   25.1557  -75.4951 H         1 UNK         0.3213 
     97 H97       -73.8010   25.3409  -79.0750 H         1 UNK         0.0855 
     98 H98       -73.7709   22.9775  -77.1329 H         1 UNK         0.0814 
     99 H99       -72.8768   23.1336  -78.6312 H         1 UNK         0.0814 
    100 H100      -74.6262   22.9730  -78.6781 H         1 UNK         0.0814 
    101 H101      -75.8704   24.6010  -77.2521 H         1 UNK         0.3105 
    102 H102      -77.1479   27.8945  -76.7372 H         1 UNK         0.0547 
    103 H103      -79.1780   26.9886  -77.7568 H         1 UNK         0.0837 
    104 H104      -77.9844   27.2012  -79.0138 H         1 UNK         0.0837 
    105 H105      -78.3053   25.5906  -78.3922 H         1 UNK         0.0837 
    106 H106      -78.1299   25.3249  -75.9252 H         1 UNK         0.3020 
    107 H107      -76.2090   25.1329  -72.9024 H         1 UNK         0.1245 
    108 H108      -79.1528   24.6302  -73.2383 H         1 UNK         0.0781 
    109 H109      -78.7814   26.2946  -73.0730 H         1 UNK         0.0781 
    110 H110      -78.4289   26.6833  -69.3161 H         1 UNK         0.0836 
    111 H111      -79.5957   26.9703  -70.5830 H         1 UNK         0.0836 
    112 H112      -77.8868   23.2623  -74.3116 H         1 UNK         0.3022 
    113 H113      -75.3958   21.6705  -76.1984 H         1 UNK         0.0747 
    114 H114      -75.8891   19.6428  -74.8626 H         1 UNK         0.0793 
    115 H115      -74.8276   20.7129  -73.9637 H         1 UNK         0.0793 
    116 H116      -76.5340   20.6297  -73.5494 H         1 UNK         0.0793 
    117 H117      -78.0377   20.8740  -75.5203 H         1 UNK         0.3047 
    118 H118      -79.3487   21.4951  -78.3678 H         1 UNK         0.0822 
    119 H119      -79.6110   20.0107  -76.3942 H         1 UNK         0.0807 
    120 H120      -81.1420   20.7489  -76.7988 H         1 UNK         0.0807 
    121 H121      -80.2258   21.3581  -75.4292 H         1 UNK         0.0807 
    122 H122      -80.8539   23.1353  -78.3863 H         1 UNK         0.2946 
    123 H123      -81.4635   25.3751  -78.1407 H         1 UNK         0.1144 
    124 H124      -83.0833   23.6677  -77.3716 H         1 UNK         0.0793 
    125 H125      -83.7249   25.2687  -77.0507 H         1 UNK         0.0793 
    126 H126      -83.0471   24.3069  -75.7384 H         1 UNK         0.0793 
    127 H127      -81.2593   27.2708  -77.0712 H         1 UNK         0.2896 
@<TRIPOS>BOND
     1    1    2 1    
     2    1   67 1    
     3    1   68 1    
     4    1   69 1    
     5    2    3 2    
     6    2    4 am   BACKBONE|DICT|INTERRES
     7    4    5 1    
     8    4   70 1    
     9    5    6 1    
    10    5   65 1    
    11    5   71 1    
    12    6    7 1    
    13    6   72 1    
    14    6   73 1    
    15    7    8 1    
    16    8    9 1    
    17    8   74 1    
    18    8   75 1    
    19    9   10 ar   
    20    9   14 ar   
    21   10   11 ar   
    22   10   76 1    
    23   11   12 ar   
    24   11   48 1    
    25   12   13 ar   
    26   12   77 1    
    27   13   14 ar   
    28   13   15 1    
    29   14   78 1    
    30   15   16 1    
    31   15   79 1    
    32   15   80 1    
    33   16   17 1    
    34   17   18 1    
    35   17   81 1    
    36   17   82 1    
    37   18   19 1    
    38   18   22 1    
    39   18   83 1    
    40   19   20 am   BACKBONE|DICT|INTERRES
    41   19   21 2    
    42   20   84 1    
    43   20   85 1    
    44   22   23 am   BACKBONE|DICT|INTERRES
    45   22   86 1    
    46   23   24 2    
    47   23   25 1    
    48   25   26 1    
    49   25   27 1    
    50   25   87 1    
    51   26   88 1    
    52   26   89 1    
    53   26   90 1    
    54   27   28 am   BACKBONE|DICT|INTERRES
    55   27   91 1    
    56   28   29 2    
    57   28   30 1    
    58   30   31 1    
    59   30   32 1    
    60   30   92 1    
    61   31   93 1    
    62   31   94 1    
    63   31   95 1    
    64   32   33 am   BACKBONE|DICT|INTERRES
    65   32   96 1    
    66   33   34 2    
    67   33   35 1    
    68   35   36 1    
    69   35   37 1    
    70   35   97 1    
    71   36   98 1    
    72   36   99 1    
    73   36  100 1    
    74   37   38 am   BACKBONE|DICT|INTERRES
    75   37  101 1    
    76   38   39 2    
    77   38   40 1    
    78   40   41 1    
    79   40   42 1    
    80   40  102 1    
    81   41  103 1    
    82   41  104 1    
    83   41  105 1    
    84   42   43 am   BACKBONE|DICT|INTERRES
    85   42  106 1    
    86   43   44 2    
    87   43   45 1    
    88   45   46 1    
    89   45   49 1    
    90   45  107 1    
    91   46   47 1    
    92   46  108 1    
    93   46  109 1    
    94   47   48 1    
    95   48  110 1    
    96   48  111 1    
    97   49   50 am   BACKBONE|DICT|INTERRES
    98   49  112 1    
    99   50   51 2    
   100   50   52 1    
   101   52   53 1    
   102   52   54 1    
   103   52  113 1    
   104   53  114 1    
   105   53  115 1    
   106   53  116 1    
   107   54   55 am   BACKBONE|DICT|INTERRES
   108   54  117 1    
   109   55   56 2    
   110   55   57 1    
   111   57   58 1    
   112   57   59 1    
   113   57  118 1    
   114   58  119 1    
   115   58  120 1    
   116   58  121 1    
   117   59   60 am   BACKBONE|DICT|INTERRES
   118   59  122 1    
   119   60   61 2    
   120   60   62 1    
   121   62   63 1    
   122   62   64 1    
   123   62  123 1    
   124   63  124 1    
   125   63  125 1    
   126   63  126 1    
   127   64   65 am   BACKBONE|DICT|INTERRES
   128   64  127 1    
   129   65   66 2    
@<TRIPOS>SUBSTRUCTURE
     1 UNK         1 GROUP             0       ****    0 ROOT    
