@<TRIPOS>MOLECULE
3R135
127   129    1
SMALL
USER_CHARGES


@<TRIPOS>ATOM
      1 CA        -79.4831   32.1929  -74.8392 C.3       0 UNK        -0.1998 
      2 C         -78.9022   30.8314  -74.4933 C.2       0 UNK         0.4909 
      3 O         -77.6892   30.6451  -74.5871 O.2       0 UNK        -0.5240 
      4 N         -79.7544   29.8775  -74.0990 N.am      1 UNK        -0.4739 
      5 CA        -79.3891   28.5098  -73.7075 C.3       1 UNK         0.0864 
      6 C6        -80.4448   27.8864  -72.7550 C.3       11 UNK        -0.0881 
      7 S7        -80.7609   28.9285  -71.2869 S.3       11 UNK        -0.2682 
      8 C8        -79.9681   27.9833  -69.9447 C.3       11 UNK         0.0289 
      9 C9        -78.4779   27.7456  -70.1650 C.ar      11 UNK        -0.0687 
     10 C10       -77.9625   26.4503  -70.0702 C.ar      11 UNK        -0.0823 
     11 C11       -76.5984   26.2115  -70.2533 C.ar      11 UNK        -0.0830 
     12 C12       -75.7488   27.2862  -70.5327 C.ar      11 UNK        -0.1021 
     13 C13       -76.2436   28.5878  -70.6456 C.ar      11 UNK        -0.0753 
     14 C14       -77.6136   28.8102  -70.4453 C.ar      11 UNK        -0.0933 
     15 C15       -75.2540   29.6906  -71.0253 C.3       11 UNK         0.0166 
     16 S16       -75.8952   31.3962  -70.9700 S.3       11 UNK        -0.2615 
     17 C17       -74.5206   32.3043  -71.7575 C.3       11 UNK        -0.0865 
     18 CA        -74.8624   32.7229  -73.2160 C.3       10 UNK         0.0862 
     19 C         -73.9198   33.8323  -73.7797 C.2       10 UNK         0.5551 
     20 N         -73.7440   33.9370  -75.0914 N.am      10 UNK        -0.7319 
     21 O         -73.3659   34.6314  -73.0280 O.2       10 UNK        -0.5018 
     22 N         -75.0655   31.5638  -74.1057 N.am      10 UNK        -0.4509 
     23 C         -74.1282   30.7339  -74.5815 C.2       10 UNK         0.4899 
     24 O         -72.9241   30.8204  -74.3299 O.2       10 UNK        -0.4839 
     25 CA        -74.6461   29.6625  -75.5570 C.3       9 UNK         0.0222 
     26 CB        -74.9419   30.2914  -76.9305 C.3       9 UNK        -0.1966 
     27 N         -73.7277   28.5398  -75.7431 N.am      9 UNK        -0.4218 
     28 C         -73.4328   27.6101  -74.8268 C.2       9 UNK         0.5020 
     29 O         -73.8909   27.6025  -73.6840 O.2       9 UNK        -0.5274 
     30 CA        -72.5156   26.4664  -75.3058 C.3       8 UNK         0.0270 
     31 CB        -72.0188   25.5800  -74.1496 C.3       8 UNK        -0.1976 
     32 N         -73.2032   25.6370  -76.3043 N.am      8 UNK        -0.4313 
     33 C         -73.3620   25.9859  -77.5907 C.2       8 UNK         0.5041 
     34 O         -72.8572   27.0042  -78.0689 O.2       8 UNK        -0.5577 
     35 CA        -74.2808   25.1349  -78.4862 C.3       7 UNK         0.0284 
     36 CB        -73.6675   24.8572  -79.8756 C.3       7 UNK        -0.1958 
     37 N         -74.8082   23.9236  -77.8467 N.am      7 UNK        -0.4454 
     38 C         -74.2010   22.7435  -77.6599 C.2       7 UNK         0.5089 
     39 O         -73.0475   22.4941  -78.0123 O.2       7 UNK        -0.5125 
     40 CA        -75.0429   21.6653  -76.9426 C.3       6 UNK         0.0408 
     41 CB        -74.2013   20.4543  -76.4876 C.3       6 UNK        -0.1791 
     42 N         -75.8346   22.1914  -75.8210 N.am      6 UNK        -0.4762 
     43 C         -75.3639   22.8520  -74.7490 C.2       6 UNK         0.5007 
     44 O         -74.1709   23.1149  -74.6010 O.2       6 UNK        -0.5032 
     45 CA        -76.3897   23.3196  -73.6927 C.3       5 UNK         0.0783 
     46 C46       -75.9750   24.6376  -72.9911 C.3       11 UNK        -0.0857 
     47 S47       -74.9288   24.3479  -71.5233 S.3       11 UNK        -0.2512 
     48 C48       -76.0573   24.7874  -70.1582 C.3       11 UNK         0.0225 
     49 N         -77.7131   23.4572  -74.2983 N.am      5 UNK        -0.4615 
     50 C         -78.8242   22.8157  -73.9173 C.2       4 UNK         0.5053 
     51 O         -78.8671   22.0261  -72.9740 O.2       4 UNK        -0.5105 
     52 CA        -80.1105   23.0883  -74.7226 C.3       4 UNK         0.0263 
     53 CB        -81.1019   23.9185  -73.8918 C.3       4 UNK        -0.1981 
     54 N         -79.8650   23.7617  -76.0030 N.am      4 UNK        -0.4224 
     55 C         -79.2885   23.1738  -77.0630 C.2       3 UNK         0.4895 
     56 O         -78.9550   21.9888  -77.0859 O.2       3 UNK        -0.5091 
     57 CA        -78.9710   24.0566  -78.2832 C.3       3 UNK         0.0250 
     58 CB        -80.1020   23.9642  -79.3194 C.3       3 UNK        -0.1996 
     59 N         -78.7175   25.4665  -77.9688 N.am      3 UNK        -0.4254 
     60 C         -77.7674   25.9273  -77.1430 C.2       2 UNK         0.5004 
     61 O         -77.0022   25.1964  -76.5131 O.2       2 UNK        -0.5226 
     62 CA        -77.6394   27.4530  -76.9880 C.3       2 UNK         0.0269 
     63 CB        -78.3718   28.2590  -78.0823 C.3       2 UNK        -0.1926 
     64 N         -78.0444   27.9470  -75.6678 N.am      2 UNK        -0.4687 
     65 C         -79.1516   27.6535  -74.9708 C.2       1 UNK         0.5165 
     66 O         -79.9833   26.8107  -75.3163 O.2       1 UNK        -0.5079 
     67 H67       -79.0418   32.9591  -74.2025 H         1 UNK         0.0900 
     68 H68       -79.2610   32.4414  -75.8766 H         1 UNK         0.0900 
     69 H69       -80.5643   32.2210  -74.7057 H         1 UNK         0.0900 
     70 H70       -80.7410   30.0871  -74.0486 H         1 UNK         0.2959 
     71 H71       -78.4416   28.5465  -73.1649 H         1 UNK         0.1079 
     72 H72       -80.1246   26.8950  -72.4309 H         1 UNK         0.0837 
     73 H73       -81.3961   27.7448  -73.2716 H         1 UNK         0.0837 
     74 H74       -80.5008   27.0383  -69.8267 H         1 UNK         0.0685 
     75 H75       -80.0996   28.5283  -69.0092 H         1 UNK         0.0685 
     76 H76       -78.6260   25.6243  -69.8524 H         1 UNK         0.1434 
     77 H77       -74.6944   27.1042  -70.6936 H         1 UNK         0.1329 
     78 H78       -78.0278   29.8046  -70.5267 H         1 UNK         0.1335 
     79 H79       -74.9005   29.4861  -72.0355 H         1 UNK         0.0680 
     80 H80       -74.3825   29.6306  -70.3717 H         1 UNK         0.0680 
     81 H81       -74.3328   33.1818  -71.1365 H         1 UNK         0.1032 
     82 H82       -73.6021   31.7158  -71.7282 H         1 UNK         0.1032 
     83 H83       -75.8351   33.2150  -73.1796 H         1 UNK         0.0461 
     84 H84       -73.1435   34.6603  -75.4544 H         1 UNK         0.3453 
     85 H85       -74.2006   33.2946  -75.7181 H         1 UNK         0.3453 
     86 H86       -76.0359   31.3679  -74.3474 H         1 UNK         0.2984 
     87 H87       -75.5694   29.2521  -75.1480 H         1 UNK         0.0554 
     88 H88       -75.7213   31.0509  -76.8549 H         1 UNK         0.0847 
     89 H89       -75.2875   29.5512  -77.6512 H         1 UNK         0.0847 
     90 H90       -74.0569   30.7717  -77.3502 H         1 UNK         0.0847 
     91 H91       -73.3132   28.4265  -76.6628 H         1 UNK         0.3141 
     92 H92       -71.6353   26.9202  -75.7662 H         1 UNK         0.0743 
     93 H93       -71.4378   26.1647  -73.4356 H         1 UNK         0.0784 
     94 H94       -71.3790   24.7747  -74.5104 H         1 UNK         0.0784 
     95 H95       -72.8445   25.1301  -73.5992 H         1 UNK         0.0784 
     96 H96       -73.6514   24.7953  -75.9606 H         1 UNK         0.3213 
     97 H97       -75.1565   25.7608  -78.6599 H         1 UNK         0.0855 
     98 H98       -72.7133   24.3351  -79.8047 H         1 UNK         0.0814 
     99 H99       -73.4802   25.7893  -80.4102 H         1 UNK         0.0814 
    100 H100      -74.3360   24.2595  -80.4951 H         1 UNK         0.0814 
    101 H101      -75.7227   24.0473  -77.4197 H         1 UNK         0.3105 
    102 H102      -75.7632   21.3064  -77.6793 H         1 UNK         0.0547 
    103 H103      -74.8222   19.6947  -76.0131 H         1 UNK         0.0837 
    104 H104      -73.4249   20.7443  -75.7789 H         1 UNK         0.0837 
    105 H105      -73.7056   19.9810  -77.3360 H         1 UNK         0.0837 
    106 H106      -76.8335   22.0369  -75.8798 H         1 UNK         0.3020 
    107 H107      -76.4214   22.5217  -72.9473 H         1 UNK         0.1245 
    108 H108      -75.4568   25.3139  -73.6739 H         1 UNK         0.0781 
    109 H109      -76.8640   25.1874  -72.6809 H         1 UNK         0.0781 
    110 H110      -75.5261   24.6761  -69.2122 H         1 UNK         0.0836 
    111 H111      -76.8736   24.0633  -70.1418 H         1 UNK         0.0836 
    112 H112      -77.7486   24.0854  -75.0962 H         1 UNK         0.3022 
    113 H113      -80.5722   22.1209  -74.9320 H         1 UNK         0.0747 
    114 H114      -82.0268   24.1008  -74.4391 H         1 UNK         0.0793 
    115 H115      -81.3678   23.4004  -72.9694 H         1 UNK         0.0793 
    116 H116      -80.6815   24.8833  -73.6112 H         1 UNK         0.0793 
    117 H117      -80.0629   24.7565  -76.0386 H         1 UNK         0.3047 
    118 H118      -78.0608   23.6589  -78.7370 H         1 UNK         0.0822 
    119 H119      -79.8461   24.4954  -80.2364 H         1 UNK         0.0807 
    120 H120      -81.0348   24.3812  -78.9373 H         1 UNK         0.0807 
    121 H121      -80.2973   22.9262  -79.5935 H         1 UNK         0.0807 
    122 H122      -79.3162   26.1419  -78.4217 H         1 UNK         0.2946 
    123 H123      -76.5729   27.6590  -77.0807 H         1 UNK         0.1144 
    124 H124      -78.1366   29.3207  -78.0029 H         1 UNK         0.0793 
    125 H125      -79.4557   28.1610  -78.0100 H         1 UNK         0.0793 
    126 H126      -78.0691   27.9429  -79.0818 H         1 UNK         0.0793 
    127 H127      -77.4829   28.7058  -75.2973 H         1 UNK         0.2896 
@<TRIPOS>BOND
     1    1    2 1    
     2    1   67 1    
     3    1   68 1    
     4    1   69 1    
     5    2    3 2    
     6    2    4 am   BACKBONE|DICT|INTERRES
     7    4    5 1    
     8    4   70 1    
     9    5    6 1    
    10    5   65 1    
    11    5   71 1    
    12    6    7 1    
    13    6   72 1    
    14    6   73 1    
    15    7    8 1    
    16    8    9 1    
    17    8   74 1    
    18    8   75 1    
    19    9   10 ar   
    20    9   14 ar   
    21   10   11 ar   
    22   10   76 1    
    23   11   12 ar   
    24   11   48 1    
    25   12   13 ar   
    26   12   77 1    
    27   13   14 ar   
    28   13   15 1    
    29   14   78 1    
    30   15   16 1    
    31   15   79 1    
    32   15   80 1    
    33   16   17 1    
    34   17   18 1    
    35   17   81 1    
    36   17   82 1    
    37   18   19 1    
    38   18   22 1    
    39   18   83 1    
    40   19   20 am   BACKBONE|DICT|INTERRES
    41   19   21 2    
    42   20   84 1    
    43   20   85 1    
    44   22   23 am   BACKBONE|DICT|INTERRES
    45   22   86 1    
    46   23   24 2    
    47   23   25 1    
    48   25   26 1    
    49   25   27 1    
    50   25   87 1    
    51   26   88 1    
    52   26   89 1    
    53   26   90 1    
    54   27   28 am   BACKBONE|DICT|INTERRES
    55   27   91 1    
    56   28   29 2    
    57   28   30 1    
    58   30   31 1    
    59   30   32 1    
    60   30   92 1    
    61   31   93 1    
    62   31   94 1    
    63   31   95 1    
    64   32   33 am   BACKBONE|DICT|INTERRES
    65   32   96 1    
    66   33   34 2    
    67   33   35 1    
    68   35   36 1    
    69   35   37 1    
    70   35   97 1    
    71   36   98 1    
    72   36   99 1    
    73   36  100 1    
    74   37   38 am   BACKBONE|DICT|INTERRES
    75   37  101 1    
    76   38   39 2    
    77   38   40 1    
    78   40   41 1    
    79   40   42 1    
    80   40  102 1    
    81   41  103 1    
    82   41  104 1    
    83   41  105 1    
    84   42   43 am   BACKBONE|DICT|INTERRES
    85   42  106 1    
    86   43   44 2    
    87   43   45 1    
    88   45   46 1    
    89   45   49 1    
    90   45  107 1    
    91   46   47 1    
    92   46  108 1    
    93   46  109 1    
    94   47   48 1    
    95   48  110 1    
    96   48  111 1    
    97   49   50 am   BACKBONE|DICT|INTERRES
    98   49  112 1    
    99   50   51 2    
   100   50   52 1    
   101   52   53 1    
   102   52   54 1    
   103   52  113 1    
   104   53  114 1    
   105   53  115 1    
   106   53  116 1    
   107   54   55 am   BACKBONE|DICT|INTERRES
   108   54  117 1    
   109   55   56 2    
   110   55   57 1    
   111   57   58 1    
   112   57   59 1    
   113   57  118 1    
   114   58  119 1    
   115   58  120 1    
   116   58  121 1    
   117   59   60 am   BACKBONE|DICT|INTERRES
   118   59  122 1    
   119   60   61 2    
   120   60   62 1    
   121   62   63 1    
   122   62   64 1    
   123   62  123 1    
   124   63  124 1    
   125   63  125 1    
   126   63  126 1    
   127   64   65 am   BACKBONE|DICT|INTERRES
   128   64  127 1    
   129   65   66 2    
@<TRIPOS>SUBSTRUCTURE
     1 UNK         1 GROUP             0       ****    0 ROOT    
