@<TRIPOS>MOLECULE
3R135
127   129    1
SMALL
USER_CHARGES


@<TRIPOS>ATOM
      1 CA        -85.8295   25.7767  -69.6439 C.3       0 UNK        -0.1998 
      2 C         -84.9844   26.1088  -70.8646 C.2       0 UNK         0.4909 
      3 O         -85.5309   26.4846  -71.9019 O.2       0 UNK        -0.5240 
      4 N         -83.6559   25.9795  -70.7449 N.am      1 UNK        -0.4739 
      5 CA        -82.6857   26.2112  -71.8216 C.3       1 UNK         0.0864 
      6 C6        -81.2471   26.2987  -71.2504 C.3       11 UNK        -0.0881 
      7 S7        -79.9988   26.8660  -72.4546 S.3       11 UNK        -0.2682 
      8 C8        -79.7934   28.6063  -71.9704 C.3       11 UNK         0.0289 
      9 C9        -78.5787   29.2209  -72.6478 C.ar      11 UNK        -0.0687 
     10 C10       -78.7182   29.9942  -73.8053 C.ar      11 UNK        -0.0823 
     11 C11       -77.5974   30.5760  -74.4091 C.ar      11 UNK        -0.0830 
     12 C12       -76.3320   30.3676  -73.8501 C.ar      11 UNK        -0.1021 
     13 C13       -76.1811   29.5899  -72.6995 C.ar      11 UNK        -0.0753 
     14 C14       -77.3081   29.0227  -72.1005 C.ar      11 UNK        -0.0933 
     15 C15       -74.7988   29.3372  -72.1231 C.3       11 UNK         0.0166 
     16 S16       -74.0390   30.8504  -71.4569 S.3       11 UNK        -0.2615 
     17 C17       -72.4828   30.1651  -70.7910 C.3       11 UNK        -0.0865 
     18 CA        -71.2738   30.2901  -71.7568 C.3       10 UNK         0.0862 
     19 C         -69.9935   29.7239  -71.0739 C.2       10 UNK         0.5551 
     20 N         -69.5206   28.5362  -71.4375 N.am      10 UNK        -0.7319 
     21 O         -69.4268   30.3741  -70.1992 O.2       10 UNK        -0.5018 
     22 N         -71.5577   29.6921  -73.0701 N.am      10 UNK        -0.4509 
     23 C         -70.8023   29.8262  -74.1657 C.2       10 UNK         0.4899 
     24 O         -69.8564   30.6117  -74.2434 O.2       10 UNK        -0.4839 
     25 CA        -71.1517   28.9390  -75.3813 C.3       9 UNK         0.0222 
     26 CB        -69.8834   28.4013  -76.0753 C.3       9 UNK        -0.1966 
     27 N         -72.0839   27.8291  -75.1229 N.am      9 UNK        -0.4218 
     28 C         -71.9484   26.8167  -74.2498 C.2       9 UNK         0.5020 
     29 O         -71.0447   26.7410  -73.4152 O.2       9 UNK        -0.5274 
     30 CA        -73.0012   25.6969  -74.3252 C.3       8 UNK         0.0270 
     31 CB        -74.3334   26.1282  -73.6905 C.3       8 UNK        -0.1976 
     32 N         -73.2401   25.2492  -75.6974 N.am      8 UNK        -0.4313 
     33 C         -72.3436   24.6006  -76.4549 C.2       8 UNK         0.5041 
     34 O         -71.2269   24.2581  -76.0643 O.2       8 UNK        -0.5577 
     35 CA        -72.7642   24.2831  -77.8964 C.3       7 UNK         0.0284 
     36 CB        -73.6561   23.0320  -77.9385 C.3       7 UNK        -0.1958 
     37 N         -73.4563   25.4187  -78.5096 N.am      7 UNK        -0.4454 
     38 C         -72.8276   26.4816  -79.0321 C.2       7 UNK         0.5089 
     39 O         -71.6032   26.5786  -79.1168 O.2       7 UNK        -0.5125 
     40 CA        -73.7026   27.6345  -79.5575 C.3       6 UNK         0.0408 
     41 CB        -73.9213   27.4911  -81.0720 C.3       6 UNK        -0.1791 
     42 N         -75.0031   27.7486  -78.8918 N.am      6 UNK        -0.4762 
     43 C         -75.1769   28.1137  -77.6128 C.2       6 UNK         0.5007 
     44 O         -74.2521   28.3557  -76.8368 O.2       6 UNK        -0.5032 
     45 CA        -76.6331   28.1439  -77.1006 C.3       5 UNK         0.0783 
     46 C46       -77.3989   29.4119  -77.5600 C.3       11 UNK        -0.0857 
     47 S47       -76.6616   30.9888  -77.0118 S.3       11 UNK        -0.2512 
     48 C48       -77.7590   31.4655  -75.6364 C.3       11 UNK         0.0225 
     49 N         -77.3783   26.9361  -77.4778 N.am      5 UNK        -0.4615 
     50 C         -77.0216   25.6743  -77.2095 C.2       4 UNK         0.5053 
     51 O         -75.9716   25.3539  -76.6471 O.2       4 UNK        -0.5105 
     52 CA        -77.9862   24.5783  -77.6838 C.3       4 UNK         0.0263 
     53 CB        -77.3991   23.7998  -78.8719 C.3       4 UNK        -0.1981 
     54 N         -78.2751   23.6611  -76.5827 N.am      4 UNK        -0.4224 
     55 C         -79.1092   23.9578  -75.5790 C.2       3 UNK         0.4895 
     56 O         -79.7902   24.9848  -75.5402 O.2       3 UNK        -0.5091 
     57 CA        -79.1534   22.9618  -74.4085 C.3       3 UNK         0.0250 
     58 CB        -78.0498   23.2931  -73.3891 C.3       3 UNK        -0.1996 
     59 N         -80.4508   22.9911  -73.7316 N.am      3 UNK        -0.4254 
     60 C         -81.5828   22.4687  -74.2241 C.2       2 UNK         0.5004 
     61 O         -81.6343   21.8081  -75.2628 O.2       2 UNK        -0.5226 
     62 CA        -82.8782   22.7073  -73.4233 C.3       2 UNK         0.0269 
     63 CB        -83.2440   21.4578  -72.6052 C.3       2 UNK        -0.1926 
     64 N         -82.8108   23.8643  -72.5236 N.am      2 UNK        -0.4687 
     65 C         -82.8146   25.1433  -72.9295 C.2       1 UNK         0.5165 
     66 O         -82.9421   25.4872  -74.1052 O.2       1 UNK        -0.5079 
     67 H67       -86.4127   26.6468  -69.3434 H         1 UNK         0.0900 
     68 H68       -85.2186   25.4689  -68.7954 H         1 UNK         0.0900 
     69 H69       -86.5204   24.9666  -69.8755 H         1 UNK         0.0900 
     70 H70       -83.2713   25.6758  -69.8613 H         1 UNK         0.2959 
     71 H71       -82.9265   27.1760  -72.2745 H         1 UNK         0.1079 
     72 H72       -81.2339   26.9734  -70.3930 H         1 UNK         0.0837 
     73 H73       -80.9259   25.3313  -70.8602 H         1 UNK         0.0837 
     74 H74       -79.6755   28.6773  -70.8880 H         1 UNK         0.0685 
     75 H75       -80.6986   29.1613  -72.2216 H         1 UNK         0.0685 
     76 H76       -79.7019   30.1522  -74.2262 H         1 UNK         0.1434 
     77 H77       -75.4602   30.8136  -74.3096 H         1 UNK         0.1329 
     78 H78       -77.1998   28.4181  -71.2102 H         1 UNK         0.1335 
     79 H79       -74.1665   28.9340  -72.9121 H         1 UNK         0.0680 
     80 H80       -74.8440   28.5805  -71.3381 H         1 UNK         0.0680 
     81 H81       -72.2698   30.6970  -69.8614 H         1 UNK         0.1032 
     82 H82       -72.6379   29.1235  -70.5025 H         1 UNK         0.1032 
     83 H83       -71.0930   31.3537  -71.9242 H         1 UNK         0.0461 
     84 H84       -69.9961   27.9856  -72.1446 H         1 UNK         0.3453 
     85 H85       -68.6917   28.1759  -70.9925 H         1 UNK         0.3453 
     86 H86       -72.2989   29.0114  -73.0959 H         1 UNK         0.2984 
     87 H87       -71.6629   29.5929  -76.0891 H         1 UNK         0.0554 
     88 H88       -70.1349   27.8117  -76.9572 H         1 UNK         0.0847 
     89 H89       -69.2969   27.7697  -75.4072 H         1 UNK         0.0847 
     90 H90       -69.2370   29.2147  -76.4068 H         1 UNK         0.0847 
     91 H91       -72.9028   27.8287  -75.7311 H         1 UNK         0.3141 
     92 H92       -72.6183   24.8453  -73.7589 H         1 UNK         0.0743 
     93 H93       -74.1908   26.4334  -72.6536 H         1 UNK         0.0784 
     94 H94       -74.7900   26.9610  -74.2271 H         1 UNK         0.0784 
     95 H95       -75.0517   25.3078  -73.6874 H         1 UNK         0.0784 
     96 H96       -74.1633   25.4313  -76.0854 H         1 UNK         0.3213 
     97 H97       -71.8611   24.0687  -78.4726 H         1 UNK         0.0855 
     98 H98       -74.5407   23.1414  -77.3111 H         1 UNK         0.0814 
     99 H99       -73.1117   22.1596  -77.5748 H         1 UNK         0.0814 
    100 H100      -73.9829   22.8086  -78.9541 H         1 UNK         0.0814 
    101 H101      -74.4632   25.4422  -78.4312 H         1 UNK         0.3105 
    102 H102      -73.1562   28.5635  -79.3804 H         1 UNK         0.0547 
    103 H103      -74.4831   26.5888  -81.3166 H         1 UNK         0.0837 
    104 H104      -74.4618   28.3459  -81.4788 H         1 UNK         0.0837 
    105 H105      -72.9681   27.4334  -81.5997 H         1 UNK         0.0837 
    106 H106      -75.8209   27.5484  -79.4495 H         1 UNK         0.3020 
    107 H107      -76.5837   28.1549  -76.0090 H         1 UNK         0.1245 
    108 H108      -78.4286   29.3690  -77.2010 H         1 UNK         0.0781 
    109 H109      -77.4690   29.4392  -78.6490 H         1 UNK         0.0781 
    110 H110      -77.5293   32.4925  -75.3497 H         1 UNK         0.0836 
    111 H111      -78.7923   31.4716  -75.9871 H         1 UNK         0.0836 
    112 H112      -78.2605   27.0923  -77.9433 H         1 UNK         0.3022 
    113 H113      -78.9203   25.0390  -78.0135 H         1 UNK         0.0747 
    114 H114      -77.1441   24.4705  -79.6935 H         1 UNK         0.0793 
    115 H115      -78.1153   23.0745  -79.2586 H         1 UNK         0.0793 
    116 H116      -76.4949   23.2581  -78.5990 H         1 UNK         0.0793 
    117 H117      -77.7096   22.8266  -76.5256 H         1 UNK         0.3047 
    118 H118      -78.9861   21.9541  -74.7954 H         1 UNK         0.0822 
    119 H119      -77.0628   23.2546  -73.8525 H         1 UNK         0.0807 
    120 H120      -78.0461   22.5835  -72.5615 H         1 UNK         0.0807 
    121 H121      -78.1726   24.2944  -72.9735 H         1 UNK         0.0807 
    122 H122      -80.5136   23.5583  -72.8999 H         1 UNK         0.2946 
    123 H123      -83.6746   22.8862  -74.1497 H         1 UNK         0.1144 
    124 H124      -83.3337   20.5820  -73.2495 H         1 UNK         0.0793 
    125 H125      -84.2004   21.5818  -72.0966 H         1 UNK         0.0793 
    126 H126      -82.4881   21.2318  -71.8521 H         1 UNK         0.0793 
    127 H127      -82.7426   23.6705  -71.5348 H         1 UNK         0.2896 
@<TRIPOS>BOND
     1    1    2 1    
     2    1   67 1    
     3    1   68 1    
     4    1   69 1    
     5    2    3 2    
     6    2    4 am   BACKBONE|DICT|INTERRES
     7    4    5 1    
     8    4   70 1    
     9    5    6 1    
    10    5   65 1    
    11    5   71 1    
    12    6    7 1    
    13    6   72 1    
    14    6   73 1    
    15    7    8 1    
    16    8    9 1    
    17    8   74 1    
    18    8   75 1    
    19    9   10 ar   
    20    9   14 ar   
    21   10   11 ar   
    22   10   76 1    
    23   11   12 ar   
    24   11   48 1    
    25   12   13 ar   
    26   12   77 1    
    27   13   14 ar   
    28   13   15 1    
    29   14   78 1    
    30   15   16 1    
    31   15   79 1    
    32   15   80 1    
    33   16   17 1    
    34   17   18 1    
    35   17   81 1    
    36   17   82 1    
    37   18   19 1    
    38   18   22 1    
    39   18   83 1    
    40   19   20 am   BACKBONE|DICT|INTERRES
    41   19   21 2    
    42   20   84 1    
    43   20   85 1    
    44   22   23 am   BACKBONE|DICT|INTERRES
    45   22   86 1    
    46   23   24 2    
    47   23   25 1    
    48   25   26 1    
    49   25   27 1    
    50   25   87 1    
    51   26   88 1    
    52   26   89 1    
    53   26   90 1    
    54   27   28 am   BACKBONE|DICT|INTERRES
    55   27   91 1    
    56   28   29 2    
    57   28   30 1    
    58   30   31 1    
    59   30   32 1    
    60   30   92 1    
    61   31   93 1    
    62   31   94 1    
    63   31   95 1    
    64   32   33 am   BACKBONE|DICT|INTERRES
    65   32   96 1    
    66   33   34 2    
    67   33   35 1    
    68   35   36 1    
    69   35   37 1    
    70   35   97 1    
    71   36   98 1    
    72   36   99 1    
    73   36  100 1    
    74   37   38 am   BACKBONE|DICT|INTERRES
    75   37  101 1    
    76   38   39 2    
    77   38   40 1    
    78   40   41 1    
    79   40   42 1    
    80   40  102 1    
    81   41  103 1    
    82   41  104 1    
    83   41  105 1    
    84   42   43 am   BACKBONE|DICT|INTERRES
    85   42  106 1    
    86   43   44 2    
    87   43   45 1    
    88   45   46 1    
    89   45   49 1    
    90   45  107 1    
    91   46   47 1    
    92   46  108 1    
    93   46  109 1    
    94   47   48 1    
    95   48  110 1    
    96   48  111 1    
    97   49   50 am   BACKBONE|DICT|INTERRES
    98   49  112 1    
    99   50   51 2    
   100   50   52 1    
   101   52   53 1    
   102   52   54 1    
   103   52  113 1    
   104   53  114 1    
   105   53  115 1    
   106   53  116 1    
   107   54   55 am   BACKBONE|DICT|INTERRES
   108   54  117 1    
   109   55   56 2    
   110   55   57 1    
   111   57   58 1    
   112   57   59 1    
   113   57  118 1    
   114   58  119 1    
   115   58  120 1    
   116   58  121 1    
   117   59   60 am   BACKBONE|DICT|INTERRES
   118   59  122 1    
   119   60   61 2    
   120   60   62 1    
   121   62   63 1    
   122   62   64 1    
   123   62  123 1    
   124   63  124 1    
   125   63  125 1    
   126   63  126 1    
   127   64   65 am   BACKBONE|DICT|INTERRES
   128   64  127 1    
   129   65   66 2    
@<TRIPOS>SUBSTRUCTURE
     1 UNK         1 GROUP             0       ****    0 ROOT    
