@<TRIPOS>MOLECULE
3R135
127   129    1
SMALL
USER_CHARGES


@<TRIPOS>ATOM
      1 CA        -76.0636   25.6549  -72.9588 C.3       0 UNK        -0.1998 
      2 C         -77.3357   25.1065  -72.3422 C.2       0 UNK         0.4909 
      3 O         -77.3010   24.5629  -71.2387 O.2       0 UNK        -0.5240 
      4 N         -78.4599   25.2376  -73.0533 N.am      1 UNK        -0.4739 
      5 CA        -79.7881   24.8039  -72.5964 C.3       1 UNK         0.0864 
      6 C6        -80.9261   25.7039  -73.1543 C.3       11 UNK        -0.0881 
      7 S7        -80.6195   27.5058  -73.1511 S.3       11 UNK        -0.2682 
      8 C8        -80.0332   27.8893  -71.4646 C.3       11 UNK         0.0289 
      9 C9        -78.8017   28.7873  -71.4950 C.ar      11 UNK        -0.0687 
     10 C10       -78.8466   30.0068  -72.1777 C.ar      11 UNK        -0.0823 
     11 C11       -77.7207   30.8290  -72.2333 C.ar      11 UNK        -0.0830 
     12 C12       -76.5676   30.4647  -71.5377 C.ar      11 UNK        -0.1021 
     13 C13       -76.4921   29.2389  -70.8735 C.ar      11 UNK        -0.0753 
     14 C14       -77.6167   28.4038  -70.8535 C.ar      11 UNK        -0.0933 
     15 C15       -75.1988   28.8252  -70.1782 C.3       11 UNK         0.0166 
     16 S16       -73.8621   28.4072  -71.3554 S.3       11 UNK        -0.2615 
     17 C17       -73.1280   30.0377  -71.7408 C.3       11 UNK        -0.0865 
     18 CA        -73.4534   30.5175  -73.1873 C.3       10 UNK         0.0862 
     19 C         -73.2550   32.0526  -73.3894 C.2       10 UNK         0.5551 
     20 N         -72.9258   32.5237  -74.5862 N.am      10 UNK        -0.7319 
     21 O         -73.4342   32.8353  -72.4595 O.2       10 UNK        -0.5018 
     22 N         -72.8502   29.6629  -74.2243 N.am      10 UNK        -0.4509 
     23 C         -71.5461   29.5696  -74.5182 C.2       10 UNK         0.4899 
     24 O         -70.6633   30.2072  -73.9410 O.2       10 UNK        -0.4839 
     25 CA        -71.1769   28.5932  -75.6539 C.3       9 UNK         0.0222 
     26 CB        -69.6610   28.5468  -75.9411 C.3       9 UNK        -0.1966 
     27 N         -71.6997   27.2396  -75.4321 N.am      9 UNK        -0.4218 
     28 C         -71.4898   26.4530  -74.3617 C.2       9 UNK         0.5020 
     29 O         -70.7560   26.7545  -73.4194 O.2       9 UNK        -0.5274 
     30 CA        -72.2185   25.0979  -74.3369 C.3       8 UNK         0.0270 
     31 CB        -72.5910   24.6595  -72.9076 C.3       8 UNK        -0.1976 
     32 N         -73.4177   25.1295  -75.1790 N.am      8 UNK        -0.4313 
     33 C         -73.7365   24.2047  -76.0923 C.2       8 UNK         0.5041 
     34 O         -73.1160   23.1522  -76.2489 O.2       8 UNK        -0.5577 
     35 CA        -74.9349   24.5057  -77.0131 C.3       7 UNK         0.0284 
     36 CB        -76.1906   23.7650  -76.5248 C.3       7 UNK        -0.1958 
     37 N         -75.2399   25.9325  -77.2052 N.am      7 UNK        -0.4454 
     38 C         -74.3982   26.8348  -77.7381 C.2       7 UNK         0.5089 
     39 O         -73.2172   26.5943  -77.9888 O.2       7 UNK        -0.5125 
     40 CA        -74.9319   28.2489  -78.0384 C.3       6 UNK         0.0408 
     41 CB        -75.1540   28.4202  -79.5494 C.3       6 UNK        -0.1791 
     42 N         -76.1655   28.6038  -77.3354 N.am      6 UNK        -0.4762 
     43 C         -76.2727   28.7769  -76.0108 C.2       6 UNK         0.5007 
     44 O         -75.3334   28.6070  -75.2327 O.2       6 UNK        -0.5032 
     45 CA        -77.6813   29.1287  -75.4766 C.3       5 UNK         0.0783 
     46 C46       -77.9911   30.6512  -75.5480 C.3       11 UNK        -0.0857 
     47 S47       -76.8402   31.7617  -74.6635 S.3       11 UNK        -0.2512 
     48 C48       -77.7184   32.0775  -73.0969 C.3       11 UNK         0.0225 
     49 N         -78.7392   28.3849  -76.1788 N.am      5 UNK        -0.4615 
     50 C         -78.8362   27.0546  -76.2935 C.2       4 UNK         0.5053 
     51 O         -78.0529   26.2578  -75.7688 O.2       4 UNK        -0.5105 
     52 CA        -79.9791   26.5283  -77.1717 C.3       4 UNK         0.0263 
     53 CB        -79.8333   27.0170  -78.6282 C.3       4 UNK        -0.1981 
     54 N         -79.9562   25.0688  -77.1350 N.am      4 UNK        -0.4224 
     55 C         -80.9619   24.2514  -77.4737 C.2       3 UNK         0.4895 
     56 O         -82.0647   24.6400  -77.8584 O.2       3 UNK        -0.5091 
     57 CA        -80.6982   22.7459  -77.3407 C.3       3 UNK         0.0250 
     58 CB        -79.9034   22.2126  -78.5477 C.3       3 UNK        -0.1996 
     59 N         -79.9962   22.4647  -76.0902 N.am      3 UNK        -0.4254 
     60 C         -79.9762   21.2948  -75.4398 C.2       2 UNK         0.5004 
     61 O         -80.5055   20.2643  -75.8573 O.2       2 UNK        -0.5226 
     62 CA        -79.2437   21.2759  -74.0839 C.3       2 UNK         0.0269 
     63 CB        -77.8574   20.6271  -74.2281 C.3       2 UNK        -0.1926 
     64 N         -79.0863   22.6192  -73.5147 N.am      2 UNK        -0.4687 
     65 C         -80.0671   23.3199  -72.9254 C.2       1 UNK         0.5165 
     66 O         -81.1787   22.8466  -72.6857 O.2       1 UNK        -0.5079 
     67 H67       -75.4559   24.8317  -73.3280 H         1 UNK         0.0900 
     68 H68       -76.2678   26.3396  -73.7813 H         1 UNK         0.0900 
     69 H69       -75.4941   26.1959  -72.2064 H         1 UNK         0.0900 
     70 H70       -78.4239   25.6965  -73.9595 H         1 UNK         0.2959 
     71 H71       -79.8207   24.8592  -71.5071 H         1 UNK         0.1079 
     72 H72       -81.8499   25.5217  -72.6019 H         1 UNK         0.0837 
     73 H73       -81.1443   25.4361  -74.1903 H         1 UNK         0.0837 
     74 H74       -80.8313   28.4016  -70.9261 H         1 UNK         0.0685 
     75 H75       -79.8266   26.9813  -70.9018 H         1 UNK         0.0685 
     76 H76       -79.7483   30.2930  -72.7018 H         1 UNK         0.1434 
     77 H77       -75.7125   31.1232  -71.5547 H         1 UNK         0.1329 
     78 H78       -77.5698   27.4554  -70.3358 H         1 UNK         0.1335 
     79 H79       -74.8717   29.6150  -69.5008 H         1 UNK         0.0680 
     80 H80       -75.3791   27.9507  -69.5512 H         1 UNK         0.0680 
     81 H81       -72.0484   29.9742  -71.5982 H         1 UNK         0.1032 
     82 H82       -73.4728   30.7549  -70.9954 H         1 UNK         0.1032 
     83 H83       -74.5220   30.3806  -73.3367 H         1 UNK         0.0461 
     84 H84       -72.7936   31.8953  -75.3615 H         1 UNK         0.3453 
     85 H85       -72.8125   33.5168  -74.7127 H         1 UNK         0.3453 
     86 H86       -73.5267   29.1100  -74.7421 H         1 UNK         0.2984 
     87 H87       -71.6690   28.9674  -76.5530 H         1 UNK         0.0554 
     88 H88       -69.2816   29.5368  -76.1974 H         1 UNK         0.0847 
     89 H89       -69.4360   27.8877  -76.7795 H         1 UNK         0.0847 
     90 H90       -69.0949   28.1960  -75.0776 H         1 UNK         0.0847 
     91 H91       -72.2605   26.8675  -76.1920 H         1 UNK         0.3141 
     92 H92       -71.5059   24.3732  -74.7361 H         1 UNK         0.0743 
     93 H93       -71.6968   24.4972  -72.3046 H         1 UNK         0.0784 
     94 H94       -73.1887   25.4154  -72.3983 H         1 UNK         0.0784 
     95 H95       -73.1515   23.7247  -72.9091 H         1 UNK         0.0784 
     96 H96       -73.9903   25.9610  -75.1179 H         1 UNK         0.3213 
     97 H97       -74.6766   24.1068  -77.9965 H         1 UNK         0.0855 
     98 H98       -76.5095   24.1121  -75.5425 H         1 UNK         0.0814 
     99 H99       -76.0008   22.6939  -76.4458 H         1 UNK         0.0814 
    100 H100      -77.0203   23.8923  -77.2191 H         1 UNK         0.0814 
    101 H101      -76.1772   26.2304  -76.9648 H         1 UNK         0.3105 
    102 H102      -74.1594   28.9557  -77.7279 H         1 UNK         0.0547 
    103 H103      -75.4385   29.4431  -79.7967 H         1 UNK         0.0837 
    104 H104      -74.2427   28.1980  -80.1068 H         1 UNK         0.0837 
    105 H105      -75.9331   27.7538  -79.9218 H         1 UNK         0.0837 
    106 H106      -76.9893   28.7409  -77.9029 H         1 UNK         0.3020 
    107 H107      -77.7029   28.8134  -74.4315 H         1 UNK         0.1245 
    108 H108      -78.9983   30.8364  -75.1715 H         1 UNK         0.0781 
    109 H109      -78.0087   30.9759  -76.5900 H         1 UNK         0.0781 
    110 H110      -78.7338   32.4217  -73.2993 H         1 UNK         0.0836 
    111 H111      -77.2182   32.8891  -72.5663 H         1 UNK         0.0836 
    112 H112      -79.4437   28.9509  -76.6285 H         1 UNK         0.3022 
    113 H113      -80.9219   26.8828  -76.7497 H         1 UNK         0.0747 
    114 H114      -80.6337   26.6312  -79.2598 H         1 UNK         0.0793 
    115 H115      -79.8787   28.1043  -78.6949 H         1 UNK         0.0793 
    116 H116      -78.8856   26.6996  -79.0654 H         1 UNK         0.0793 
    117 H117      -79.0722   24.6942  -76.8193 H         1 UNK         0.3047 
    118 H118      -81.6693   22.2463  -77.3125 H         1 UNK         0.0822 
    119 H119      -80.4110   22.4488  -79.4839 H         1 UNK         0.0807 
    120 H120      -79.7956   21.1287  -78.5049 H         1 UNK         0.0807 
    121 H121      -78.9038   22.6453  -78.5986 H         1 UNK         0.0807 
    122 H122      -79.5833   23.2562  -75.6216 H         1 UNK         0.2946 
    123 H123      -79.8402   20.6693  -73.3982 H         1 UNK         0.1144 
    124 H124      -77.3496   20.5584  -73.2658 H         1 UNK         0.0793 
    125 H125      -77.2154   21.1875  -74.9079 H         1 UNK         0.0793 
    126 H126      -77.9410   19.6129  -74.6214 H         1 UNK         0.0793 
    127 H127      -78.1911   23.0704  -73.6335 H         1 UNK         0.2896 
@<TRIPOS>BOND
     1    1    2 1    
     2    1   67 1    
     3    1   68 1    
     4    1   69 1    
     5    2    3 2    
     6    2    4 am   BACKBONE|DICT|INTERRES
     7    4    5 1    
     8    4   70 1    
     9    5    6 1    
    10    5   65 1    
    11    5   71 1    
    12    6    7 1    
    13    6   72 1    
    14    6   73 1    
    15    7    8 1    
    16    8    9 1    
    17    8   74 1    
    18    8   75 1    
    19    9   10 ar   
    20    9   14 ar   
    21   10   11 ar   
    22   10   76 1    
    23   11   12 ar   
    24   11   48 1    
    25   12   13 ar   
    26   12   77 1    
    27   13   14 ar   
    28   13   15 1    
    29   14   78 1    
    30   15   16 1    
    31   15   79 1    
    32   15   80 1    
    33   16   17 1    
    34   17   18 1    
    35   17   81 1    
    36   17   82 1    
    37   18   19 1    
    38   18   22 1    
    39   18   83 1    
    40   19   20 am   BACKBONE|DICT|INTERRES
    41   19   21 2    
    42   20   84 1    
    43   20   85 1    
    44   22   23 am   BACKBONE|DICT|INTERRES
    45   22   86 1    
    46   23   24 2    
    47   23   25 1    
    48   25   26 1    
    49   25   27 1    
    50   25   87 1    
    51   26   88 1    
    52   26   89 1    
    53   26   90 1    
    54   27   28 am   BACKBONE|DICT|INTERRES
    55   27   91 1    
    56   28   29 2    
    57   28   30 1    
    58   30   31 1    
    59   30   32 1    
    60   30   92 1    
    61   31   93 1    
    62   31   94 1    
    63   31   95 1    
    64   32   33 am   BACKBONE|DICT|INTERRES
    65   32   96 1    
    66   33   34 2    
    67   33   35 1    
    68   35   36 1    
    69   35   37 1    
    70   35   97 1    
    71   36   98 1    
    72   36   99 1    
    73   36  100 1    
    74   37   38 am   BACKBONE|DICT|INTERRES
    75   37  101 1    
    76   38   39 2    
    77   38   40 1    
    78   40   41 1    
    79   40   42 1    
    80   40  102 1    
    81   41  103 1    
    82   41  104 1    
    83   41  105 1    
    84   42   43 am   BACKBONE|DICT|INTERRES
    85   42  106 1    
    86   43   44 2    
    87   43   45 1    
    88   45   46 1    
    89   45   49 1    
    90   45  107 1    
    91   46   47 1    
    92   46  108 1    
    93   46  109 1    
    94   47   48 1    
    95   48  110 1    
    96   48  111 1    
    97   49   50 am   BACKBONE|DICT|INTERRES
    98   49  112 1    
    99   50   51 2    
   100   50   52 1    
   101   52   53 1    
   102   52   54 1    
   103   52  113 1    
   104   53  114 1    
   105   53  115 1    
   106   53  116 1    
   107   54   55 am   BACKBONE|DICT|INTERRES
   108   54  117 1    
   109   55   56 2    
   110   55   57 1    
   111   57   58 1    
   112   57   59 1    
   113   57  118 1    
   114   58  119 1    
   115   58  120 1    
   116   58  121 1    
   117   59   60 am   BACKBONE|DICT|INTERRES
   118   59  122 1    
   119   60   61 2    
   120   60   62 1    
   121   62   63 1    
   122   62   64 1    
   123   62  123 1    
   124   63  124 1    
   125   63  125 1    
   126   63  126 1    
   127   64   65 am   BACKBONE|DICT|INTERRES
   128   64  127 1    
   129   65   66 2    
@<TRIPOS>SUBSTRUCTURE
     1 UNK         1 GROUP             0       ****    0 ROOT    
