@<TRIPOS>MOLECULE
3R135
127   129    1
SMALL
USER_CHARGES


@<TRIPOS>ATOM
      1 CA        -81.5982   22.2114  -70.3562 C.3       0 UNK        -0.1998 
      2 C         -82.1803   23.3174  -71.2237 C.2       0 UNK         0.4909 
      3 O         -83.3606   23.2656  -71.5728 O.2       0 UNK        -0.5240 
      4 N         -81.3631   24.3217  -71.5635 N.am      1 UNK        -0.4739 
      5 CA        -81.7298   25.4400  -72.4406 C.3       1 UNK         0.0864 
      6 C6        -80.7341   26.6221  -72.3235 C.3       11 UNK        -0.0881 
      7 S7        -80.5646   27.2597  -70.6194 S.3       11 UNK        -0.2682 
      8 C8        -78.7490   27.2463  -70.3811 C.3       11 UNK         0.0289 
      9 C9        -77.9805   28.4055  -71.0262 C.ar      11 UNK        -0.0687 
     10 C10       -78.5004   29.1619  -72.0847 C.ar      11 UNK        -0.0823 
     11 C11       -77.7548   30.1835  -72.6754 C.ar      11 UNK        -0.0830 
     12 C12       -76.4790   30.4727  -72.1890 C.ar      11 UNK        -0.1021 
     13 C13       -75.9474   29.7426  -71.1231 C.ar      11 UNK        -0.0753 
     14 C14       -76.6977   28.7083  -70.5529 C.ar      11 UNK        -0.0933 
     15 C15       -74.5617   30.0774  -70.5954 C.3       11 UNK         0.0166 
     16 S16       -73.3068   29.0078  -71.3562 S.3       11 UNK        -0.2615 
     17 C17       -71.8282   30.0768  -71.2886 C.3       11 UNK        -0.0865 
     18 CA        -71.5932   30.8450  -72.6173 C.3       10 UNK         0.0862 
     19 C         -70.3914   31.8261  -72.4948 C.2       10 UNK         0.5551 
     20 N         -69.3363   31.6913  -73.2891 N.am      10 UNK        -0.7319 
     21 O         -70.4221   32.7319  -71.6653 O.2       10 UNK        -0.5018 
     22 N         -71.5201   29.9248  -73.7630 N.am      10 UNK        -0.4509 
     23 C         -71.7947   30.2295  -75.0349 C.2       10 UNK         0.4899 
     24 O         -72.0991   31.3609  -75.4134 O.2       10 UNK        -0.4839 
     25 CA        -71.7461   29.0856  -76.0674 C.3       9 UNK         0.0222 
     26 CB        -70.3721   29.0172  -76.7620 C.3       9 UNK        -0.1966 
     27 N         -72.1644   27.7696  -75.5565 N.am      9 UNK        -0.4218 
     28 C         -71.5506   26.9728  -74.6675 C.2       9 UNK         0.5020 
     29 O         -70.4903   27.2597  -74.1099 O.2       9 UNK        -0.5274 
     30 CA        -72.2419   25.6500  -74.2999 C.3       8 UNK         0.0270 
     31 CB        -73.0788   25.8195  -73.0233 C.3       8 UNK        -0.1976 
     32 N         -73.0849   25.1149  -75.3720 N.am      8 UNK        -0.4313 
     33 C         -72.6033   24.4709  -76.4452 C.2       8 UNK         0.5041 
     34 O         -71.4032   24.2751  -76.6439 O.2       8 UNK        -0.5577 
     35 CA        -73.6250   23.9449  -77.4671 C.3       7 UNK         0.0284 
     36 CB        -74.3089   22.6707  -76.9470 C.3       7 UNK        -0.1958 
     37 N         -74.6352   24.9400  -77.8293 N.am      7 UNK        -0.4454 
     38 C         -74.3796   26.0579  -78.5238 C.2       7 UNK         0.5089 
     39 O         -73.2680   26.3618  -78.9572 O.2       7 UNK        -0.5125 
     40 CA        -75.5635   27.0086  -78.7661 C.3       6 UNK         0.0408 
     41 CB        -76.3773   26.5666  -79.9927 C.3       6 UNK        -0.1791 
     42 N         -76.4469   27.1233  -77.6045 N.am      6 UNK        -0.4762 
     43 C         -76.0920   27.6666  -76.4304 C.2       6 UNK         0.5007 
     44 O         -74.9731   28.1232  -76.1973 O.2       6 UNK        -0.5032 
     45 CA        -77.1581   27.6401  -75.3158 C.3       5 UNK         0.0783 
     46 C46       -78.2657   28.6992  -75.5563 C.3       11 UNK        -0.0857 
     47 S47       -77.6559   30.4186  -75.4356 S.3       11 UNK        -0.2512 
     48 C48       -78.3327   30.9733  -73.8396 C.3       11 UNK         0.0225 
     49 N         -77.7197   26.2919  -75.1700 N.am      5 UNK        -0.4615 
     50 C         -77.0066   25.2095  -74.8150 C.2       4 UNK         0.5053 
     51 O         -75.8197   25.2487  -74.4983 O.2       4 UNK        -0.5105 
     52 CA        -77.7014   23.8382  -74.8789 C.3       4 UNK         0.0263 
     53 CB        -78.2416   23.4386  -73.4984 C.3       4 UNK        -0.1981 
     54 N         -78.7633   23.7786  -75.8873 N.am      4 UNK        -0.4224 
     55 C         -78.5405   23.9074  -77.2064 C.2       3 UNK         0.4895 
     56 O         -77.4142   24.0223  -77.6918 O.2       3 UNK        -0.5091 
     57 CA        -79.7564   23.9645  -78.1501 C.3       3 UNK         0.0250 
     58 CB        -79.9524   22.6101  -78.8490 C.3       3 UNK        -0.1996 
     59 N         -81.0132   24.3629  -77.5095 N.am      3 UNK        -0.4254 
     60 C         -81.2356   25.5227  -76.8749 C.2       2 UNK         0.5004 
     61 O         -80.3866   26.4083  -76.7529 O.2       2 UNK        -0.5226 
     62 CA        -82.6104   25.7063  -76.1994 C.3       2 UNK         0.0269 
     63 CB        -83.6410   24.6043  -76.5388 C.3       2 UNK        -0.1926 
     64 N         -82.4740   25.8431  -74.7426 N.am      2 UNK        -0.4687 
     65 C         -81.8456   24.9928  -73.9150 C.2       1 UNK         0.5165 
     66 O         -81.3253   23.9365  -74.2883 O.2       1 UNK        -0.5079 
     67 H67       -82.1522   22.1366  -69.4209 H         1 UNK         0.0900 
     68 H68       -81.6690   21.2545  -70.8726 H         1 UNK         0.0900 
     69 H69       -80.5501   22.3899  -70.1164 H         1 UNK         0.0900 
     70 H70       -80.4071   24.3139  -71.2418 H         1 UNK         0.2959 
     71 H71       -82.7164   25.7921  -72.1303 H         1 UNK         0.1079 
     72 H72       -79.7519   26.3435  -72.7090 H         1 UNK         0.0837 
     73 H73       -81.0736   27.4526  -72.9447 H         1 UNK         0.0837 
     74 H74       -78.5657   27.2609  -69.3056 H         1 UNK         0.0685 
     75 H75       -78.3419   26.3022  -70.7456 H         1 UNK         0.0685 
     76 H76       -79.4876   28.9660  -72.4682 H         1 UNK         0.1434 
     77 H77       -75.8979   31.2628  -72.6452 H         1 UNK         0.1329 
     78 H78       -76.2765   28.1350  -69.7382 H         1 UNK         0.1335 
     79 H79       -74.3317   31.1238  -70.8027 H         1 UNK         0.0680 
     80 H80       -74.5286   29.9618  -69.5111 H         1 UNK         0.0680 
     81 H81       -71.9237   30.7679  -70.4487 H         1 UNK         0.1032 
     82 H82       -70.9659   29.4474  -71.0608 H         1 UNK         0.1032 
     83 H83       -72.4676   31.4795  -72.7753 H         1 UNK         0.0461 
     84 H84       -69.3079   30.9515  -73.9721 H         1 UNK         0.3453 
     85 H85       -68.5651   32.3345  -73.2042 H         1 UNK         0.3453 
     86 H86       -71.2221   28.9757  -73.5636 H         1 UNK         0.2984 
     87 H87       -72.4818   29.3359  -76.8333 H         1 UNK         0.0554 
     88 H88       -70.1302   29.9687  -77.2371 H         1 UNK         0.0847 
     89 H89       -70.3612   28.2542  -77.5405 H         1 UNK         0.0847 
     90 H90       -69.5677   28.7933  -76.0611 H         1 UNK         0.0847 
     91 H91       -73.0903   27.4913  -75.8682 H         1 UNK         0.3141 
     92 H92       -71.4569   24.9214  -74.0857 H         1 UNK         0.0743 
     93 H93       -73.8688   26.5603  -73.1553 H         1 UNK         0.0784 
     94 H94       -73.5467   24.8810  -72.7256 H         1 UNK         0.0784 
     95 H95       -72.4568   26.1501  -72.1906 H         1 UNK         0.0784 
     96 H96       -74.0917   25.2060  -75.2464 H         1 UNK         0.3213 
     97 H97       -73.0799   23.6842  -78.3771 H         1 UNK         0.0855 
     98 H98       -74.8299   22.8482  -76.0070 H         1 UNK         0.0814 
     99 H99       -73.5756   21.8837  -76.7665 H         1 UNK         0.0814 
    100 H100      -75.0319   22.2833  -77.6652 H         1 UNK         0.0814 
    101 H101      -75.5994   24.7367  -77.5792 H         1 UNK         0.3105 
    102 H102      -75.1551   28.0006  -78.9709 H         1 UNK         0.0547 
    103 H103      -75.7427   26.5052  -80.8779 H         1 UNK         0.0837 
    104 H104      -76.8293   25.5846  -79.8494 H         1 UNK         0.0837 
    105 H105      -77.1753   27.2745  -80.2168 H         1 UNK         0.0837 
    106 H106      -77.3715   26.7264  -77.6927 H         1 UNK         0.3020 
    107 H107      -76.6526   27.8809  -74.3768 H         1 UNK         0.1245 
    108 H108      -79.0796   28.5587  -74.8446 H         1 UNK         0.0781 
    109 H109      -78.7195   28.5684  -76.5403 H         1 UNK         0.0781 
    110 H110      -79.4212   30.8992  -73.8610 H         1 UNK         0.0836 
    111 H111      -78.1045   32.0322  -73.7088 H         1 UNK         0.0836 
    112 H112      -78.6759   26.1695  -75.4832 H         1 UNK         0.3022 
    113 H113      -76.9497   23.1000  -75.1611 H         1 UNK         0.0747 
    114 H114      -78.7517   22.4757  -73.5308 H         1 UNK         0.0793 
    115 H115      -77.4293   23.3531  -72.7754 H         1 UNK         0.0793 
    116 H116      -78.9402   24.1765  -73.1108 H         1 UNK         0.0793 
    117 H117      -79.7171   23.7073  -75.5454 H         1 UNK         0.3047 
    118 H118      -79.5297   24.7127  -78.9125 H         1 UNK         0.0822 
    119 H119      -80.7412   22.6599  -79.5999 H         1 UNK         0.0807 
    120 H120      -80.2112   21.8234  -78.1391 H         1 UNK         0.0807 
    121 H121      -79.0405   22.2993  -79.3614 H         1 UNK         0.0807 
    122 H122      -81.7589   23.6821  -77.5209 H         1 UNK         0.2946 
    123 H123      -83.0017   26.6541  -76.5733 H         1 UNK         0.1144 
    124 H124      -84.6107   24.8317  -76.0956 H         1 UNK         0.0793 
    125 H125      -83.3384   23.6234  -76.1700 H         1 UNK         0.0793 
    126 H126      -83.7981   24.5255  -77.6156 H         1 UNK         0.0793 
    127 H127      -82.8419   26.7019  -74.3570 H         1 UNK         0.2896 
@<TRIPOS>BOND
     1    1    2 1    
     2    1   67 1    
     3    1   68 1    
     4    1   69 1    
     5    2    3 2    
     6    2    4 am   BACKBONE|DICT|INTERRES
     7    4    5 1    
     8    4   70 1    
     9    5    6 1    
    10    5   65 1    
    11    5   71 1    
    12    6    7 1    
    13    6   72 1    
    14    6   73 1    
    15    7    8 1    
    16    8    9 1    
    17    8   74 1    
    18    8   75 1    
    19    9   10 ar   
    20    9   14 ar   
    21   10   11 ar   
    22   10   76 1    
    23   11   12 ar   
    24   11   48 1    
    25   12   13 ar   
    26   12   77 1    
    27   13   14 ar   
    28   13   15 1    
    29   14   78 1    
    30   15   16 1    
    31   15   79 1    
    32   15   80 1    
    33   16   17 1    
    34   17   18 1    
    35   17   81 1    
    36   17   82 1    
    37   18   19 1    
    38   18   22 1    
    39   18   83 1    
    40   19   20 am   BACKBONE|DICT|INTERRES
    41   19   21 2    
    42   20   84 1    
    43   20   85 1    
    44   22   23 am   BACKBONE|DICT|INTERRES
    45   22   86 1    
    46   23   24 2    
    47   23   25 1    
    48   25   26 1    
    49   25   27 1    
    50   25   87 1    
    51   26   88 1    
    52   26   89 1    
    53   26   90 1    
    54   27   28 am   BACKBONE|DICT|INTERRES
    55   27   91 1    
    56   28   29 2    
    57   28   30 1    
    58   30   31 1    
    59   30   32 1    
    60   30   92 1    
    61   31   93 1    
    62   31   94 1    
    63   31   95 1    
    64   32   33 am   BACKBONE|DICT|INTERRES
    65   32   96 1    
    66   33   34 2    
    67   33   35 1    
    68   35   36 1    
    69   35   37 1    
    70   35   97 1    
    71   36   98 1    
    72   36   99 1    
    73   36  100 1    
    74   37   38 am   BACKBONE|DICT|INTERRES
    75   37  101 1    
    76   38   39 2    
    77   38   40 1    
    78   40   41 1    
    79   40   42 1    
    80   40  102 1    
    81   41  103 1    
    82   41  104 1    
    83   41  105 1    
    84   42   43 am   BACKBONE|DICT|INTERRES
    85   42  106 1    
    86   43   44 2    
    87   43   45 1    
    88   45   46 1    
    89   45   49 1    
    90   45  107 1    
    91   46   47 1    
    92   46  108 1    
    93   46  109 1    
    94   47   48 1    
    95   48  110 1    
    96   48  111 1    
    97   49   50 am   BACKBONE|DICT|INTERRES
    98   49  112 1    
    99   50   51 2    
   100   50   52 1    
   101   52   53 1    
   102   52   54 1    
   103   52  113 1    
   104   53  114 1    
   105   53  115 1    
   106   53  116 1    
   107   54   55 am   BACKBONE|DICT|INTERRES
   108   54  117 1    
   109   55   56 2    
   110   55   57 1    
   111   57   58 1    
   112   57   59 1    
   113   57  118 1    
   114   58  119 1    
   115   58  120 1    
   116   58  121 1    
   117   59   60 am   BACKBONE|DICT|INTERRES
   118   59  122 1    
   119   60   61 2    
   120   60   62 1    
   121   62   63 1    
   122   62   64 1    
   123   62  123 1    
   124   63  124 1    
   125   63  125 1    
   126   63  126 1    
   127   64   65 am   BACKBONE|DICT|INTERRES
   128   64  127 1    
   129   65   66 2    
@<TRIPOS>SUBSTRUCTURE
     1 UNK         1 GROUP             0       ****    0 ROOT    
