@<TRIPOS>MOLECULE
3R135
127   129    1
SMALL
USER_CHARGES


@<TRIPOS>ATOM
      1 CA        -78.6476   32.5892  -76.7529 C.3       0 UNK        -0.1998 
      2 C         -79.3671   31.4659  -76.0215 C.2       0 UNK         0.4909 
      3 O         -80.5643   31.5790  -75.7571 O.2       0 UNK        -0.5240 
      4 N         -78.6417   30.3884  -75.6989 N.am      1 UNK        -0.4739 
      5 CA        -79.1220   29.1634  -75.0584 C.3       1 UNK         0.0864 
      6 C6        -79.7016   29.4004  -73.6342 C.3       11 UNK        -0.0881 
      7 S7        -79.9427   27.8550  -72.6853 S.3       11 UNK        -0.2682 
      8 C8        -79.0903   28.1892  -71.1122 C.3       11 UNK         0.0289 
      9 C9        -77.7945   27.4013  -70.9954 C.ar      11 UNK        -0.0687 
     10 C10       -77.8378   26.0398  -70.6821 C.ar      11 UNK        -0.0823 
     11 C11       -76.6592   25.3065  -70.5199 C.ar      11 UNK        -0.0830 
     12 C12       -75.4271   25.9480  -70.6825 C.ar      11 UNK        -0.1021 
     13 C13       -75.3670   27.3164  -70.9744 C.ar      11 UNK        -0.0753 
     14 C14       -76.5569   28.0352  -71.1394 C.ar      11 UNK        -0.0933 
     15 C15       -74.0157   28.0221  -71.0216 C.3       11 UNK         0.0166 
     16 S16       -73.5546   28.5952  -72.6870 S.3       11 UNK        -0.2615 
     17 C17       -74.2369   30.2931  -72.7181 C.3       11 UNK        -0.0865 
     18 CA        -75.1230   30.5516  -73.9631 C.3       10 UNK         0.0862 
     19 C         -75.8274   31.9359  -73.8783 C.2       10 UNK         0.5551 
     20 N         -75.5756   32.8685  -74.7885 N.am      10 UNK        -0.7319 
     21 O         -76.6252   32.1600  -72.9723 O.2       10 UNK        -0.5018 
     22 N         -74.3538   30.3195  -75.1937 N.am      10 UNK        -0.4509 
     23 C         -74.8471   30.0489  -76.4037 C.2       10 UNK         0.4899 
     24 O         -76.0491   30.0376  -76.6598 O.2       10 UNK        -0.4839 
     25 CA        -73.8409   29.7018  -77.5163 C.3       9 UNK         0.0222 
     26 CB        -73.4736   30.9497  -78.3423 C.3       9 UNK        -0.1966 
     27 N         -72.6463   28.9743  -77.0542 N.am      9 UNK        -0.4218 
     28 C         -71.6317   29.4027  -76.2861 C.2       9 UNK         0.5020 
     29 O         -71.5509   30.5537  -75.8545 O.2       9 UNK        -0.5274 
     30 CA        -70.5644   28.3649  -75.8828 C.3       8 UNK         0.0270 
     31 CB        -69.8564   28.7406  -74.5669 C.3       8 UNK        -0.1976 
     32 N         -71.1421   27.0266  -75.7382 N.am      8 UNK        -0.4313 
     33 C         -71.1611   26.0811  -76.6860 C.2       8 UNK         0.5041 
     34 O         -70.6445   26.2142  -77.7955 O.2       8 UNK        -0.5577 
     35 CA        -71.9162   24.7811  -76.3570 C.3       7 UNK         0.0284 
     36 CB        -70.9472   23.7158  -75.8203 C.3       7 UNK        -0.1958 
     37 N         -73.0142   24.9586  -75.4011 N.am      7 UNK        -0.4454 
     38 C         -74.1197   25.6856  -75.6071 C.2       7 UNK         0.5089 
     39 O         -74.3328   26.3189  -76.6423 O.2       7 UNK        -0.5125 
     40 CA        -75.1491   25.6885  -74.4608 C.3       6 UNK         0.0408 
     41 CB        -76.2992   26.6751  -74.7031 C.3       6 UNK        -0.1791 
     42 N         -75.7093   24.3595  -74.2169 N.am      6 UNK        -0.4762 
     43 C         -75.0792   23.3601  -73.5814 C.2       6 UNK         0.5007 
     44 O         -73.9342   23.4622  -73.1354 O.2       6 UNK        -0.5032 
     45 CA        -75.8250   22.0190  -73.4169 C.3       5 UNK         0.0783 
     46 C46       -76.1821   21.7450  -71.9353 C.3       11 UNK        -0.0857 
     47 S47       -77.5511   22.7751  -71.2941 S.3       11 UNK        -0.2512 
     48 C48       -76.7238   23.8500  -70.0757 C.3       11 UNK         0.0225 
     49 N         -76.9968   21.8895  -74.2880 N.am      5 UNK        -0.4615 
     50 C         -76.9620   21.7037  -75.6133 C.2       4 UNK         0.5053 
     51 O         -75.9197   21.5602  -76.2522 O.2       4 UNK        -0.5105 
     52 CA        -78.3115   21.6760  -76.3569 C.3       4 UNK         0.0263 
     53 CB        -78.6963   20.2304  -76.7119 C.3       4 UNK        -0.1981 
     54 N         -79.4226   22.3022  -75.6277 N.am      4 UNK        -0.4224 
     55 C         -79.5102   23.6072  -75.3367 C.2       3 UNK         0.4895 
     56 O         -78.6296   24.4280  -75.6001 O.2       3 UNK        -0.5091 
     57 CA        -80.7648   24.0515  -74.5694 C.3       3 UNK         0.0250 
     58 CB        -80.4936   24.0500  -73.0572 C.3       3 UNK        -0.1996 
     59 N         -81.1846   25.3928  -74.9711 N.am      3 UNK        -0.4254 
     60 C         -81.8381   25.6850  -76.1049 C.2       2 UNK         0.5004 
     61 O         -82.2022   24.8379  -76.9216 O.2       2 UNK        -0.5226 
     62 CA        -82.1605   27.1683  -76.3675 C.3       2 UNK         0.0269 
     63 CB        -83.6117   27.4818  -75.9684 C.3       2 UNK        -0.1926 
     64 N         -81.2614   28.0706  -75.6445 N.am      2 UNK        -0.4687 
     65 C         -80.0168   28.3707  -76.0378 C.2       1 UNK         0.5165 
     66 O         -79.5524   28.0267  -77.1267 O.2       1 UNK        -0.5079 
     67 H67       -79.1518   32.8096  -77.6934 H         1 UNK         0.0900 
     68 H68       -77.6124   32.3317  -76.9764 H         1 UNK         0.0900 
     69 H69       -78.6478   33.4927  -76.1439 H         1 UNK         0.0900 
     70 H70       -77.6782   30.3350  -76.0298 H         1 UNK         0.2959 
     71 H71       -78.2301   28.5525  -74.9353 H         1 UNK         0.1079 
     72 H72       -79.0194   30.0515  -73.0857 H         1 UNK         0.0837 
     73 H73       -80.6489   29.9400  -73.6735 H         1 UNK         0.0837 
     74 H74       -79.7544   27.9013  -70.2959 H         1 UNK         0.0685 
     75 H75       -78.9113   29.2571  -70.9823 H         1 UNK         0.0685 
     76 H76       -78.7937   25.5530  -70.5436 H         1 UNK         0.1434 
     77 H77       -74.5119   25.3896  -70.5399 H         1 UNK         0.1329 
     78 H78       -76.5251   29.0934  -71.3517 H         1 UNK         0.1335 
     79 H79       -74.0117   28.8573  -70.3200 H         1 UNK         0.0680 
     80 H80       -73.2310   27.3470  -70.6768 H         1 UNK         0.0680 
     81 H81       -74.7956   30.4839  -71.8012 H         1 UNK         0.1032 
     82 H82       -73.3999   30.9937  -72.7006 H         1 UNK         0.1032 
     83 H83       -75.9328   29.8207  -73.9435 H         1 UNK         0.0461 
     84 H84       -74.9156   32.6909  -75.5280 H         1 UNK         0.3453 
     85 H85       -76.0326   33.7636  -74.7197 H         1 UNK         0.3453 
     86 H86       -73.3439   30.3662  -75.1066 H         1 UNK         0.2984 
     87 H87       -74.3548   29.0088  -78.1843 H         1 UNK         0.0554 
     88 H88       -72.8103   30.6969  -79.1693 H         1 UNK         0.0847 
     89 H89       -72.9817   31.7128  -77.7387 H         1 UNK         0.0847 
     90 H90       -74.3666   31.4060  -78.7716 H         1 UNK         0.0847 
     91 H91       -72.6473   27.9902  -77.2909 H         1 UNK         0.3141 
     92 H92       -69.8128   28.3599  -76.6749 H         1 UNK         0.0743 
     93 H93       -69.3431   29.6990  -74.6559 H         1 UNK         0.0784 
     94 H94       -70.5613   28.8235  -73.7385 H         1 UNK         0.0784 
     95 H95       -69.1048   27.9992  -74.2953 H         1 UNK         0.0784 
     96 H96       -71.6218   26.8351  -74.8696 H         1 UNK         0.3213 
     97 H97       -72.3493   24.4123  -77.2894 H         1 UNK         0.0855 
     98 H98       -70.1315   23.5403  -76.5233 H         1 UNK         0.0814 
     99 H99       -71.4516   22.7614  -75.6672 H         1 UNK         0.0814 
    100 H100      -70.5013   24.0163  -74.8713 H         1 UNK         0.0814 
    101 H101      -72.9684   24.4320  -74.5328 H         1 UNK         0.3105 
    102 H102      -74.6275   26.0083  -73.5581 H         1 UNK         0.0547 
    103 H103      -76.8639   26.4289  -75.6030 H         1 UNK         0.0837 
    104 H104      -76.9911   26.6893  -73.8607 H         1 UNK         0.0837 
    105 H105      -75.9129   27.6850  -74.8280 H         1 UNK         0.0837 
    106 H106      -76.6397   24.1937  -74.5827 H         1 UNK         0.3020 
    107 H107      -75.1106   21.2510  -73.7229 H         1 UNK         0.1245 
    108 H108      -75.2984   21.8371  -71.3018 H         1 UNK         0.0781 
    109 H109      -76.4924   20.7039  -71.8339 H         1 UNK         0.0781 
    110 H110      -75.7288   23.4728  -69.8380 H         1 UNK         0.0836 
    111 H111      -77.2862   23.8006  -69.1423 H         1 UNK         0.0836 
    112 H112      -77.8925   22.0022  -73.8364 H         1 UNK         0.3022 
    113 H113      -78.1737   22.2308  -77.2875 H         1 UNK         0.0747 
    114 H114      -79.5995   20.1972  -77.3215 H         1 UNK         0.0793 
    115 H115      -77.9048   19.7445  -77.2847 H         1 UNK         0.0793 
    116 H116      -78.8690   19.6275  -75.8194 H         1 UNK         0.0793 
    117 H117      -80.1812   21.6922  -75.3568 H         1 UNK         0.3047 
    118 H118      -81.5804   23.3561  -74.7796 H         1 UNK         0.0822 
    119 H119      -80.2651   23.0447  -72.7022 H         1 UNK         0.0807 
    120 H120      -81.3594   24.4007  -72.4951 H         1 UNK         0.0807 
    121 H121      -79.6468   24.6883  -72.8002 H         1 UNK         0.0807 
    122 H122      -80.8835   26.1545  -74.3797 H         1 UNK         0.2946 
    123 H123      -82.0538   27.3423  -77.4410 H         1 UNK         0.1144 
    124 H124      -84.3114   26.8430  -76.5093 H         1 UNK         0.0793 
    125 H125      -83.8722   28.5147  -76.2007 H         1 UNK         0.0793 
    126 H126      -83.7821   27.3231  -74.9028 H         1 UNK         0.0793 
    127 H127      -81.5689   28.3965  -74.7386 H         1 UNK         0.2896 
@<TRIPOS>BOND
     1    1    2 1    
     2    1   67 1    
     3    1   68 1    
     4    1   69 1    
     5    2    3 2    
     6    2    4 am   BACKBONE|DICT|INTERRES
     7    4    5 1    
     8    4   70 1    
     9    5    6 1    
    10    5   65 1    
    11    5   71 1    
    12    6    7 1    
    13    6   72 1    
    14    6   73 1    
    15    7    8 1    
    16    8    9 1    
    17    8   74 1    
    18    8   75 1    
    19    9   10 ar   
    20    9   14 ar   
    21   10   11 ar   
    22   10   76 1    
    23   11   12 ar   
    24   11   48 1    
    25   12   13 ar   
    26   12   77 1    
    27   13   14 ar   
    28   13   15 1    
    29   14   78 1    
    30   15   16 1    
    31   15   79 1    
    32   15   80 1    
    33   16   17 1    
    34   17   18 1    
    35   17   81 1    
    36   17   82 1    
    37   18   19 1    
    38   18   22 1    
    39   18   83 1    
    40   19   20 am   BACKBONE|DICT|INTERRES
    41   19   21 2    
    42   20   84 1    
    43   20   85 1    
    44   22   23 am   BACKBONE|DICT|INTERRES
    45   22   86 1    
    46   23   24 2    
    47   23   25 1    
    48   25   26 1    
    49   25   27 1    
    50   25   87 1    
    51   26   88 1    
    52   26   89 1    
    53   26   90 1    
    54   27   28 am   BACKBONE|DICT|INTERRES
    55   27   91 1    
    56   28   29 2    
    57   28   30 1    
    58   30   31 1    
    59   30   32 1    
    60   30   92 1    
    61   31   93 1    
    62   31   94 1    
    63   31   95 1    
    64   32   33 am   BACKBONE|DICT|INTERRES
    65   32   96 1    
    66   33   34 2    
    67   33   35 1    
    68   35   36 1    
    69   35   37 1    
    70   35   97 1    
    71   36   98 1    
    72   36   99 1    
    73   36  100 1    
    74   37   38 am   BACKBONE|DICT|INTERRES
    75   37  101 1    
    76   38   39 2    
    77   38   40 1    
    78   40   41 1    
    79   40   42 1    
    80   40  102 1    
    81   41  103 1    
    82   41  104 1    
    83   41  105 1    
    84   42   43 am   BACKBONE|DICT|INTERRES
    85   42  106 1    
    86   43   44 2    
    87   43   45 1    
    88   45   46 1    
    89   45   49 1    
    90   45  107 1    
    91   46   47 1    
    92   46  108 1    
    93   46  109 1    
    94   47   48 1    
    95   48  110 1    
    96   48  111 1    
    97   49   50 am   BACKBONE|DICT|INTERRES
    98   49  112 1    
    99   50   51 2    
   100   50   52 1    
   101   52   53 1    
   102   52   54 1    
   103   52  113 1    
   104   53  114 1    
   105   53  115 1    
   106   53  116 1    
   107   54   55 am   BACKBONE|DICT|INTERRES
   108   54  117 1    
   109   55   56 2    
   110   55   57 1    
   111   57   58 1    
   112   57   59 1    
   113   57  118 1    
   114   58  119 1    
   115   58  120 1    
   116   58  121 1    
   117   59   60 am   BACKBONE|DICT|INTERRES
   118   59  122 1    
   119   60   61 2    
   120   60   62 1    
   121   62   63 1    
   122   62   64 1    
   123   62  123 1    
   124   63  124 1    
   125   63  125 1    
   126   63  126 1    
   127   64   65 am   BACKBONE|DICT|INTERRES
   128   64  127 1    
   129   65   66 2    
@<TRIPOS>SUBSTRUCTURE
     1 UNK         1 GROUP             0       ****    0 ROOT    
