@<TRIPOS>MOLECULE
3R135
127   129    1
SMALL
USER_CHARGES


@<TRIPOS>ATOM
      1 CA        -81.0195   21.8863  -69.1832 C.3       0 UNK        -0.1998 
      2 C         -81.6649   23.0062  -69.9854 C.2       0 UNK         0.4909 
      3 O         -82.8867   23.0256  -70.1359 O.2       0 UNK        -0.5240 
      4 N         -80.8532   23.9366  -70.5071 N.am      1 UNK        -0.4739 
      5 CA        -81.3011   25.0843  -71.3117 C.3       1 UNK         0.0864 
      6 C6        -80.2946   26.2642  -71.2136 C.3       11 UNK        -0.0881 
      7 S7        -81.1258   27.8841  -71.0899 S.3       11 UNK        -0.2682 
      8 C8        -80.7434   28.6286  -72.7122 C.3       11 UNK         0.0289 
      9 C9        -79.4587   29.4589  -72.7689 C.ar      11 UNK        -0.0687 
     10 C10       -79.3728   30.4784  -73.7225 C.ar      11 UNK        -0.0823 
     11 C11       -78.2158   31.2532  -73.8465 C.ar      11 UNK        -0.0830 
     12 C12       -77.1329   31.0092  -73.0000 C.ar      11 UNK        -0.1021 
     13 C13       -77.1953   29.9901  -72.0471 C.ar      11 UNK        -0.0753 
     14 C14       -78.3592   29.2220  -71.9312 C.ar      11 UNK        -0.0933 
     15 C15       -75.9864   29.7026  -71.1723 C.3       11 UNK         0.0166 
     16 S16       -74.9649   28.4126  -71.9372 S.3       11 UNK        -0.2615 
     17 C17       -73.3690   28.6121  -71.0753 C.3       11 UNK        -0.0865 
     18 CA        -72.3151   29.3936  -71.9086 C.3       10 UNK         0.0862 
     19 C         -70.9499   29.4175  -71.1603 C.2       10 UNK         0.5551 
     20 N         -69.9152   28.7404  -71.6444 N.am      10 UNK        -0.7319 
     21 O         -70.8335   30.0601  -70.1199 O.2       10 UNK        -0.5018 
     22 N         -72.2604   28.9136  -73.2988 N.am      10 UNK        -0.4509 
     23 C         -71.6233   29.4986  -74.3210 C.2       10 UNK         0.4899 
     24 O         -70.9832   30.5458  -74.2193 O.2       10 UNK        -0.4839 
     25 CA        -71.7492   28.8093  -75.6956 C.3       9 UNK         0.0222 
     26 CB        -70.4970   28.9957  -76.5782 C.3       9 UNK        -0.1966 
     27 N         -72.1420   27.3955  -75.6084 N.am      9 UNK        -0.4218 
     28 C         -71.4378   26.3815  -75.0814 C.2       9 UNK         0.5020 
     29 O         -70.2963   26.4969  -74.6334 O.2       9 UNK        -0.5274 
     30 CA        -72.1318   25.0134  -74.9967 C.3       8 UNK         0.0270 
     31 CB        -72.7832   24.8403  -73.6128 C.3       8 UNK        -0.1976 
     32 N         -73.1556   24.8377  -76.0337 N.am      8 UNK        -0.4313 
     33 C         -73.1064   23.9175  -77.0053 C.2       8 UNK         0.5041 
     34 O         -72.1773   23.1209  -77.1484 O.2       8 UNK        -0.5577 
     35 CA        -74.2943   23.8467  -77.9809 C.3       7 UNK         0.0284 
     36 CB        -75.3845   22.9032  -77.4468 C.3       7 UNK        -0.1958 
     37 N         -74.8886   25.1443  -78.3142 N.am      7 UNK        -0.4454 
     38 C         -74.3077   26.0485  -79.1174 C.2       7 UNK         0.5089 
     39 O         -73.1634   25.9392  -79.5580 O.2       7 UNK        -0.5125 
     40 CA        -75.1520   27.2654  -79.5237 C.3       6 UNK         0.0408 
     41 CB        -76.1725   26.8739  -80.6053 C.3       6 UNK        -0.1791 
     42 N         -75.8581   27.8251  -78.3740 N.am      6 UNK        -0.4762 
     43 C         -75.4567   28.9002  -77.6802 C.2       6 UNK         0.5007 
     44 O         -74.4861   29.5915  -77.9885 O.2       6 UNK        -0.5032 
     45 CA        -76.2726   29.2586  -76.4168 C.3       5 UNK         0.0783 
     46 C46       -77.3638   30.3170  -76.7519 C.3       11 UNK        -0.0857 
     47 S47       -76.8796   31.9825  -76.1852 S.3       11 UNK        -0.2512 
     48 C48       -78.1324   32.3421  -74.9084 C.3       11 UNK         0.0225 
     49 N         -76.8367   28.0809  -75.7439 N.am      5 UNK        -0.4615 
     50 C         -76.1298   27.0344  -75.2927 C.2       4 UNK         0.5053 
     51 O         -74.9029   26.9636  -75.3482 O.2       4 UNK        -0.5105 
     52 CA        -76.9146   25.8148  -74.7817 C.3       4 UNK         0.0263 
     53 CB        -77.0152   25.8221  -73.2523 C.3       4 UNK        -0.1981 
     54 N         -78.2514   25.6735  -75.3666 N.am      4 UNK        -0.4224 
     55 C         -78.5110   25.5166  -76.6734 C.2       3 UNK         0.4895 
     56 O         -77.6398   25.5543  -77.5470 O.2       3 UNK        -0.5091 
     57 CA        -79.9894   25.3143  -77.0610 C.3       3 UNK         0.0250 
     58 CB        -80.1476   24.6320  -78.4366 C.3       3 UNK        -0.1996 
     59 N         -80.7798   24.6172  -76.0331 N.am      3 UNK        -0.4254 
     60 C         -80.5874   23.3744  -75.5649 C.2       2 UNK         0.5004 
     61 O         -79.6646   22.6376  -75.9166 O.2       2 UNK        -0.5226 
     62 CA        -81.5865   22.8919  -74.4986 C.3       2 UNK         0.0269 
     63 CB        -81.6075   21.3571  -74.3682 C.3       2 UNK        -0.1926 
     64 N         -81.2906   23.4676  -73.1856 N.am      2 UNK        -0.4687 
     65 C         -81.6222   24.7017  -72.7790 C.2       1 UNK         0.5165 
     66 O         -82.1675   25.5215  -73.5193 O.2       1 UNK        -0.5079 
     67 H67       -81.4090   21.8818  -68.1656 H         1 UNK         0.0900 
     68 H68       -81.2435   20.9217  -69.6379 H         1 UNK         0.0900 
     69 H69       -79.9362   21.9932  -69.1306 H         1 UNK         0.0900 
     70 H70       -79.8572   23.8683  -70.3500 H         1 UNK         0.2959 
     71 H71       -82.2509   25.4134  -70.8830 H         1 UNK         0.1079 
     72 H72       -79.6855   26.1732  -70.3126 H         1 UNK         0.0837 
     73 H73       -79.5862   26.2606  -72.0411 H         1 UNK         0.0837 
     74 H74       -80.7013   27.8527  -73.4772 H         1 UNK         0.0685 
     75 H75       -81.5902   29.2644  -72.9755 H         1 UNK         0.0685 
     76 H76       -80.2105   30.6631  -74.3815 H         1 UNK         0.1434 
     77 H77       -76.2307   31.5969  -73.1025 H         1 UNK         0.1329 
     78 H78       -78.3910   28.4298  -71.1976 H         1 UNK         0.1335 
     79 H79       -76.2999   29.3814  -70.1779 H         1 UNK         0.0680 
     80 H80       -75.3948   30.6098  -71.0390 H         1 UNK         0.0680 
     81 H81       -73.5343   29.0981  -70.1117 H         1 UNK         0.1032 
     82 H82       -72.9991   27.6110  -70.8449 H         1 UNK         0.1032 
     83 H83       -72.6482   30.4319  -71.9603 H         1 UNK         0.0461 
     84 H84       -69.0349   28.7622  -71.1546 H         1 UNK         0.3453 
     85 H85       -70.0064   28.2152  -72.5011 H         1 UNK         0.3453 
     86 H86       -72.7954   28.0793  -73.4880 H         1 UNK         0.2984 
     87 H87       -72.5754   29.3130  -76.1961 H         1 UNK         0.0554 
     88 H88       -70.6177   28.5060  -77.5445 H         1 UNK         0.0847 
     89 H89       -69.6011   28.5928  -76.1054 H         1 UNK         0.0847 
     90 H90       -70.3110   30.0523  -76.7739 H         1 UNK         0.0847 
     91 H91       -73.1170   27.2139  -75.8304 H         1 UNK         0.3141 
     92 H92       -71.3518   24.2559  -75.0970 H         1 UNK         0.0743 
     93 H93       -73.5573   25.5861  -73.4293 H         1 UNK         0.0784 
     94 H94       -73.2382   23.8550  -73.5112 H         1 UNK         0.0784 
     95 H95       -72.0427   24.9382  -72.8177 H         1 UNK         0.0784 
     96 H96       -73.9509   25.4679  -75.9895 H         1 UNK         0.3213 
     97 H97       -73.9163   23.4133  -78.9098 H         1 UNK         0.0855 
     98 H98       -75.8181   23.2634  -76.5153 H         1 UNK         0.0814 
     99 H99       -74.9780   21.9098  -77.2520 H         1 UNK         0.0814 
    100 H100      -76.1951   22.7850  -78.1664 H         1 UNK         0.0814 
    101 H101      -75.8517   25.2960  -78.0224 H         1 UNK         0.3105 
    102 H102      -74.4804   28.0107  -79.9552 H         1 UNK         0.0547 
    103 H103      -76.7358   27.7416  -80.9485 H         1 UNK         0.0837 
    104 H104      -75.6734   26.4471  -81.4763 H         1 UNK         0.0837 
    105 H105      -76.8877   26.1337  -80.2437 H         1 UNK         0.0837 
    106 H106      -76.6475   27.2901  -78.0282 H         1 UNK         0.3020 
    107 H107      -75.5603   29.6814  -75.7039 H         1 UNK         0.1245 
    108 H108      -78.3211   30.0515  -76.3041 H         1 UNK         0.0781 
    109 H109      -77.5760   30.3738  -77.8219 H         1 UNK         0.0781 
    110 H110      -79.0985   32.4866  -75.3946 H         1 UNK         0.0836 
    111 H111      -77.8877   33.2914  -74.4298 H         1 UNK         0.0836 
    112 H112      -77.8401   28.0523  -75.6506 H         1 UNK         0.3022 
    113 H113      -76.3471   24.9287  -75.0663 H         1 UNK         0.0747 
    114 H114      -77.5823   24.9685  -72.8810 H         1 UNK         0.0793 
    115 H115      -76.0239   25.7656  -72.8017 H         1 UNK         0.0793 
    116 H116      -77.4840   26.7347  -72.8876 H         1 UNK         0.0793 
    117 H117      -79.0280   25.6282  -74.7246 H         1 UNK         0.3047 
    118 H118      -80.4140   26.3159  -77.1426 H         1 UNK         0.0822 
    119 H119      -79.6814   23.6463  -78.4554 H         1 UNK         0.0807 
    120 H120      -79.6810   25.2248  -79.2245 H         1 UNK         0.0807 
    121 H121      -81.1977   24.5124  -78.7029 H         1 UNK         0.0807 
    122 H122      -81.5307   25.1549  -75.6140 H         1 UNK         0.2946 
    123 H123      -82.5845   23.2095  -74.8108 H         1 UNK         0.1144 
    124 H124      -81.8252   20.8872  -75.3283 H         1 UNK         0.0793 
    125 H125      -80.6502   20.9645  -74.0227 H         1 UNK         0.0793 
    126 H126      -82.3759   21.0299  -73.6674 H         1 UNK         0.0793 
    127 H127      -80.8224   22.8653  -72.5244 H         1 UNK         0.2896 
@<TRIPOS>BOND
     1    1    2 1    
     2    1   67 1    
     3    1   68 1    
     4    1   69 1    
     5    2    3 2    
     6    2    4 am   BACKBONE|DICT|INTERRES
     7    4    5 1    
     8    4   70 1    
     9    5    6 1    
    10    5   65 1    
    11    5   71 1    
    12    6    7 1    
    13    6   72 1    
    14    6   73 1    
    15    7    8 1    
    16    8    9 1    
    17    8   74 1    
    18    8   75 1    
    19    9   10 ar   
    20    9   14 ar   
    21   10   11 ar   
    22   10   76 1    
    23   11   12 ar   
    24   11   48 1    
    25   12   13 ar   
    26   12   77 1    
    27   13   14 ar   
    28   13   15 1    
    29   14   78 1    
    30   15   16 1    
    31   15   79 1    
    32   15   80 1    
    33   16   17 1    
    34   17   18 1    
    35   17   81 1    
    36   17   82 1    
    37   18   19 1    
    38   18   22 1    
    39   18   83 1    
    40   19   20 am   BACKBONE|DICT|INTERRES
    41   19   21 2    
    42   20   84 1    
    43   20   85 1    
    44   22   23 am   BACKBONE|DICT|INTERRES
    45   22   86 1    
    46   23   24 2    
    47   23   25 1    
    48   25   26 1    
    49   25   27 1    
    50   25   87 1    
    51   26   88 1    
    52   26   89 1    
    53   26   90 1    
    54   27   28 am   BACKBONE|DICT|INTERRES
    55   27   91 1    
    56   28   29 2    
    57   28   30 1    
    58   30   31 1    
    59   30   32 1    
    60   30   92 1    
    61   31   93 1    
    62   31   94 1    
    63   31   95 1    
    64   32   33 am   BACKBONE|DICT|INTERRES
    65   32   96 1    
    66   33   34 2    
    67   33   35 1    
    68   35   36 1    
    69   35   37 1    
    70   35   97 1    
    71   36   98 1    
    72   36   99 1    
    73   36  100 1    
    74   37   38 am   BACKBONE|DICT|INTERRES
    75   37  101 1    
    76   38   39 2    
    77   38   40 1    
    78   40   41 1    
    79   40   42 1    
    80   40  102 1    
    81   41  103 1    
    82   41  104 1    
    83   41  105 1    
    84   42   43 am   BACKBONE|DICT|INTERRES
    85   42  106 1    
    86   43   44 2    
    87   43   45 1    
    88   45   46 1    
    89   45   49 1    
    90   45  107 1    
    91   46   47 1    
    92   46  108 1    
    93   46  109 1    
    94   47   48 1    
    95   48  110 1    
    96   48  111 1    
    97   49   50 am   BACKBONE|DICT|INTERRES
    98   49  112 1    
    99   50   51 2    
   100   50   52 1    
   101   52   53 1    
   102   52   54 1    
   103   52  113 1    
   104   53  114 1    
   105   53  115 1    
   106   53  116 1    
   107   54   55 am   BACKBONE|DICT|INTERRES
   108   54  117 1    
   109   55   56 2    
   110   55   57 1    
   111   57   58 1    
   112   57   59 1    
   113   57  118 1    
   114   58  119 1    
   115   58  120 1    
   116   58  121 1    
   117   59   60 am   BACKBONE|DICT|INTERRES
   118   59  122 1    
   119   60   61 2    
   120   60   62 1    
   121   62   63 1    
   122   62   64 1    
   123   62  123 1    
   124   63  124 1    
   125   63  125 1    
   126   63  126 1    
   127   64   65 am   BACKBONE|DICT|INTERRES
   128   64  127 1    
   129   65   66 2    
@<TRIPOS>SUBSTRUCTURE
     1 UNK         1 GROUP             0       ****    0 ROOT    
