@<TRIPOS>MOLECULE
3R135
127   129    1
SMALL
USER_CHARGES


@<TRIPOS>ATOM
      1 CA        -83.0542   21.7565  -72.2548 C.3       0 UNK        -0.1998 
      2 C         -82.1024   22.9331  -72.4027 C.2       0 UNK         0.4909 
      3 O         -81.0751   22.8016  -73.0689 O.2       0 UNK        -0.5240 
      4 N         -82.4479   24.0835  -71.8028 N.am      1 UNK        -0.4739 
      5 CA        -81.6736   25.3343  -71.8010 C.3       1 UNK         0.0864 
      6 C6        -80.4188   25.2326  -70.8900 C.3       11 UNK        -0.0881 
      7 S7        -79.6900   26.8530  -70.4590 S.3       11 UNK        -0.2682 
      8 C8        -78.0446   26.7236  -71.2367 C.3       11 UNK         0.0289 
      9 C9        -77.5797   28.0462  -71.8244 C.ar      11 UNK        -0.0687 
     10 C10       -78.3003   28.6242  -72.8698 C.ar      11 UNK        -0.0823 
     11 C11       -77.8636   29.8012  -73.4777 C.ar      11 UNK        -0.0830 
     12 C12       -76.6884   30.4115  -73.0240 C.ar      11 UNK        -0.1021 
     13 C13       -75.9641   29.8538  -71.9626 C.ar      11 UNK        -0.0753 
     14 C14       -76.4165   28.6708  -71.3665 C.ar      11 UNK        -0.0933 
     15 C15       -74.7019   30.5285  -71.4418 C.3       11 UNK         0.0166 
     16 S16       -73.2158   29.5759  -71.8781 S.3       11 UNK        -0.2615 
     17 C17       -71.8994   30.4928  -70.9968 C.3       11 UNK        -0.0865 
     18 CA        -70.9678   31.3101  -71.9424 C.3       10 UNK         0.0862 
     19 C         -69.8909   32.1266  -71.1657 C.2       10 UNK         0.5551 
     20 N         -68.6905   32.3110  -71.7012 N.am      10 UNK        -0.7319 
     21 O         -70.1548   32.6291  -70.0758 O.2       10 UNK        -0.5018 
     22 N         -70.4548   30.5130  -73.0711 N.am      10 UNK        -0.4509 
     23 C         -69.6902   29.4156  -73.0025 C.2       10 UNK         0.4899 
     24 O         -69.1714   28.9982  -71.9660 O.2       10 UNK        -0.4839 
     25 CA        -69.5464   28.6222  -74.3186 C.3       9 UNK         0.0222 
     26 CB        -68.5988   27.4156  -74.1885 C.3       9 UNK        -0.1966 
     27 N         -70.8600   28.1512  -74.7692 N.am      9 UNK        -0.4218 
     28 C         -71.7957   28.9055  -75.3563 C.2       9 UNK         0.5020 
     29 O         -71.5800   30.0504  -75.7628 O.2       9 UNK        -0.5274 
     30 CA        -73.2099   28.3022  -75.4502 C.3       8 UNK         0.0270 
     31 CB        -74.2641   29.3867  -75.7420 C.3       8 UNK        -0.1976 
     32 N         -73.3122   27.2223  -76.4375 N.am      8 UNK        -0.4313 
     33 C         -72.7595   26.0052  -76.3135 C.2       8 UNK         0.5041 
     34 O         -72.1097   25.6571  -75.3243 O.2       8 UNK        -0.5577 
     35 CA        -72.9732   25.0175  -77.4753 C.3       7 UNK         0.0284 
     36 CB        -72.6332   23.5642  -77.0938 C.3       7 UNK        -0.1958 
     37 N         -74.3594   25.0776  -77.9321 N.am      7 UNK        -0.4454 
     38 C         -74.7606   25.2815  -79.1946 C.2       7 UNK         0.5089 
     39 O         -73.9885   25.3691  -80.1499 O.2       7 UNK        -0.5125 
     40 CA        -76.2772   25.4370  -79.4451 C.3       6 UNK         0.0408 
     41 CB        -76.8562   24.1390  -80.0280 C.3       6 UNK        -0.1791 
     42 N         -77.0456   25.8139  -78.2529 N.am      6 UNK        -0.4762 
     43 C         -76.8600   26.9420  -77.5472 C.2       6 UNK         0.5007 
     44 O         -76.0922   27.8320  -77.9134 O.2       6 UNK        -0.5032 
     45 CA        -77.5816   27.0696  -76.1807 C.3       5 UNK         0.0783 
     46 C46       -78.7599   28.0759  -76.2544 C.3       11 UNK        -0.0857 
     47 S47       -78.1956   29.8170  -76.2452 S.3       11 UNK        -0.2512 
     48 C48       -78.6884   30.4191  -74.5983 C.3       11 UNK         0.0225 
     49 N         -77.9875   25.7768  -75.6077 N.am      5 UNK        -0.4615 
     50 C         -77.1637   24.7515  -75.3361 C.2       4 UNK         0.5053 
     51 O         -75.9422   24.8108  -75.4762 O.2       4 UNK        -0.5105 
     52 CA        -77.7948   23.4119  -74.9126 C.3       4 UNK         0.0263 
     53 CB        -77.6437   23.1780  -73.4050 C.3       4 UNK        -0.1981 
     54 N         -79.2038   23.2747  -75.2948 N.am      4 UNK        -0.4224 
     55 C         -79.6315   23.1555  -76.5608 C.2       3 UNK         0.4895 
     56 O         -78.8804   23.1301  -77.5360 O.2       3 UNK        -0.5091 
     57 CA        -81.1512   23.1060  -76.7784 C.3       3 UNK         0.0250 
     58 CB        -81.7265   21.7323  -76.3958 C.3       3 UNK        -0.1996 
     59 N         -81.8339   24.1648  -76.0330 N.am      3 UNK        -0.4254 
     60 C         -81.7929   25.4634  -76.3658 C.2       2 UNK         0.5004 
     61 O         -81.2413   25.8925  -77.3788 O.2       2 UNK        -0.5226 
     62 CA        -82.4636   26.4609  -75.4037 C.3       2 UNK         0.0269 
     63 CB        -83.8980   26.7669  -75.8632 C.3       2 UNK        -0.1926 
     64 N         -82.4874   26.0238  -74.0033 N.am      2 UNK        -0.4687 
     65 C         -81.3999   25.8169  -73.2456 C.2       1 UNK         0.5165 
     66 O         -80.2509   25.9294  -73.6738 O.2       1 UNK        -0.5079 
     67 H67       -83.4086   21.4358  -73.2340 H         1 UNK         0.0900 
     68 H68       -82.5398   20.9174  -71.7874 H         1 UNK         0.0900 
     69 H69       -83.9214   22.0061  -71.6439 H         1 UNK         0.0900 
     70 H70       -83.3171   24.1187  -71.2874 H         1 UNK         0.2959 
     71 H71       -82.3277   26.0875  -71.3580 H         1 UNK         0.1079 
     72 H72       -80.7001   24.7626  -69.9465 H         1 UNK         0.0837 
     73 H73       -79.6750   24.5677  -71.3239 H         1 UNK         0.0837 
     74 H74       -77.3320   26.3431  -70.5036 H         1 UNK         0.0685 
     75 H75       -78.0659   26.0016  -72.0512 H         1 UNK         0.0685 
     76 H76       -79.2096   28.1505  -73.2064 H         1 UNK         0.1434 
     77 H77       -76.3449   31.3251  -73.4900 H         1 UNK         0.1329 
     78 H78       -75.8509   28.2316  -70.5561 H         1 UNK         0.1335 
     79 H79       -74.6089   31.5401  -71.8400 H         1 UNK         0.0680 
     80 H80       -74.7688   30.6235  -70.3569 H         1 UNK         0.0680 
     81 H81       -72.3586   31.1496  -70.2560 H         1 UNK         0.1032 
     82 H82       -71.3130   29.7713  -70.4256 H         1 UNK         0.1032 
     83 H83       -71.5932   32.0718  -72.4092 H         1 UNK         0.0461 
     84 H84       -68.0001   32.8484  -71.2009 H         1 UNK         0.3453 
     85 H85       -68.4681   31.9064  -72.5967 H         1 UNK         0.3453 
     86 H86       -70.8403   30.7461  -73.9801 H         1 UNK         0.2984 
     87 H87       -69.1300   29.2964  -75.0699 H         1 UNK         0.0554 
     88 H88       -67.6045   27.7322  -73.8707 H         1 UNK         0.0847 
     89 H89       -68.4840   26.8975  -75.1408 H         1 UNK         0.0847 
     90 H90       -68.9615   26.6929  -73.4564 H         1 UNK         0.0847 
     91 H91       -71.1216   27.1976  -74.5329 H         1 UNK         0.3141 
     92 H92       -73.4441   27.8834  -74.4690 H         1 UNK         0.0743 
     93 H93       -74.1785   29.7773  -76.7565 H         1 UNK         0.0784 
     94 H94       -75.2738   29.0085  -75.6102 H         1 UNK         0.0784 
     95 H95       -74.1611   30.2286  -75.0555 H         1 UNK         0.0784 
     96 H96       -73.8511   27.4263  -77.2696 H         1 UNK         0.3213 
     97 H97       -72.2944   25.3293  -78.2718 H         1 UNK         0.0855 
     98 H98       -73.2547   23.2121  -76.2692 H         1 UNK         0.0814 
     99 H99       -71.5917   23.4725  -76.7830 H         1 UNK         0.0814 
    100 H100      -72.7795   22.8889  -77.9367 H         1 UNK         0.0814 
    101 H101      -75.0580   25.0286  -77.1933 H         1 UNK         0.3105 
    102 H102      -76.4060   26.2309  -80.1835 H         1 UNK         0.0547 
    103 H103      -77.9147   24.2458  -80.2660 H         1 UNK         0.0837 
    104 H104      -76.3435   23.8612  -80.9499 H         1 UNK         0.0837 
    105 H105      -76.7520   23.3046  -79.3332 H         1 UNK         0.0837 
    106 H106      -77.6899   25.1197  -77.8930 H         1 UNK         0.3020 
    107 H107      -76.8487   27.4616  -75.4746 H         1 UNK         0.1245 
    108 H108      -79.4445   27.9273  -75.4211 H         1 UNK         0.0781 
    109 H109      -79.3614   27.9073  -77.1496 H         1 UNK         0.0781 
    110 H110      -79.7509   30.2250  -74.4422 H         1 UNK         0.0836 
    111 H111      -78.5768   31.5042  -74.5777 H         1 UNK         0.0836 
    112 H112      -78.9675   25.6693  -75.3745 H         1 UNK         0.3022 
    113 H113      -77.2361   22.6265  -75.4261 H         1 UNK         0.0747 
    114 H114      -78.2359   23.8907  -72.8389 H         1 UNK         0.0793 
    115 H115      -77.9708   22.1767  -73.1245 H         1 UNK         0.0793 
    116 H116      -76.6048   23.2845  -73.0895 H         1 UNK         0.0793 
    117 H117      -79.8850   23.2722  -74.5384 H         1 UNK         0.3047 
    118 H118      -81.3393   23.2622  -77.8432 H         1 UNK         0.0822 
    119 H119      -81.2527   20.9395  -76.9762 H         1 UNK         0.0807 
    120 H120      -82.7972   21.6818  -76.5943 H         1 UNK         0.0807 
    121 H121      -81.5694   21.4995  -75.3426 H         1 UNK         0.0807 
    122 H122      -82.2783   23.9048  -75.1647 H         1 UNK         0.2946 
    123 H123      -81.8861   27.3868  -75.4507 H         1 UNK         0.1144 
    124 H124      -84.3536   27.5464  -75.2521 H         1 UNK         0.0793 
    125 H125      -84.5358   25.8834  -75.8135 H         1 UNK         0.0793 
    126 H126      -83.9102   27.1198  -76.8956 H         1 UNK         0.0793 
    127 H127      -83.3971   25.8743  -73.5905 H         1 UNK         0.2896 
@<TRIPOS>BOND
     1    1    2 1    
     2    1   67 1    
     3    1   68 1    
     4    1   69 1    
     5    2    3 2    
     6    2    4 am   BACKBONE|DICT|INTERRES
     7    4    5 1    
     8    4   70 1    
     9    5    6 1    
    10    5   65 1    
    11    5   71 1    
    12    6    7 1    
    13    6   72 1    
    14    6   73 1    
    15    7    8 1    
    16    8    9 1    
    17    8   74 1    
    18    8   75 1    
    19    9   10 ar   
    20    9   14 ar   
    21   10   11 ar   
    22   10   76 1    
    23   11   12 ar   
    24   11   48 1    
    25   12   13 ar   
    26   12   77 1    
    27   13   14 ar   
    28   13   15 1    
    29   14   78 1    
    30   15   16 1    
    31   15   79 1    
    32   15   80 1    
    33   16   17 1    
    34   17   18 1    
    35   17   81 1    
    36   17   82 1    
    37   18   19 1    
    38   18   22 1    
    39   18   83 1    
    40   19   20 am   BACKBONE|DICT|INTERRES
    41   19   21 2    
    42   20   84 1    
    43   20   85 1    
    44   22   23 am   BACKBONE|DICT|INTERRES
    45   22   86 1    
    46   23   24 2    
    47   23   25 1    
    48   25   26 1    
    49   25   27 1    
    50   25   87 1    
    51   26   88 1    
    52   26   89 1    
    53   26   90 1    
    54   27   28 am   BACKBONE|DICT|INTERRES
    55   27   91 1    
    56   28   29 2    
    57   28   30 1    
    58   30   31 1    
    59   30   32 1    
    60   30   92 1    
    61   31   93 1    
    62   31   94 1    
    63   31   95 1    
    64   32   33 am   BACKBONE|DICT|INTERRES
    65   32   96 1    
    66   33   34 2    
    67   33   35 1    
    68   35   36 1    
    69   35   37 1    
    70   35   97 1    
    71   36   98 1    
    72   36   99 1    
    73   36  100 1    
    74   37   38 am   BACKBONE|DICT|INTERRES
    75   37  101 1    
    76   38   39 2    
    77   38   40 1    
    78   40   41 1    
    79   40   42 1    
    80   40  102 1    
    81   41  103 1    
    82   41  104 1    
    83   41  105 1    
    84   42   43 am   BACKBONE|DICT|INTERRES
    85   42  106 1    
    86   43   44 2    
    87   43   45 1    
    88   45   46 1    
    89   45   49 1    
    90   45  107 1    
    91   46   47 1    
    92   46  108 1    
    93   46  109 1    
    94   47   48 1    
    95   48  110 1    
    96   48  111 1    
    97   49   50 am   BACKBONE|DICT|INTERRES
    98   49  112 1    
    99   50   51 2    
   100   50   52 1    
   101   52   53 1    
   102   52   54 1    
   103   52  113 1    
   104   53  114 1    
   105   53  115 1    
   106   53  116 1    
   107   54   55 am   BACKBONE|DICT|INTERRES
   108   54  117 1    
   109   55   56 2    
   110   55   57 1    
   111   57   58 1    
   112   57   59 1    
   113   57  118 1    
   114   58  119 1    
   115   58  120 1    
   116   58  121 1    
   117   59   60 am   BACKBONE|DICT|INTERRES
   118   59  122 1    
   119   60   61 2    
   120   60   62 1    
   121   62   63 1    
   122   62   64 1    
   123   62  123 1    
   124   63  124 1    
   125   63  125 1    
   126   63  126 1    
   127   64   65 am   BACKBONE|DICT|INTERRES
   128   64  127 1    
   129   65   66 2    
@<TRIPOS>SUBSTRUCTURE
     1 UNK         1 GROUP             0       ****    0 ROOT    
