@<TRIPOS>MOLECULE
3R135
127   129    1
SMALL
USER_CHARGES


@<TRIPOS>ATOM
      1 CA        -82.9756   29.0304  -72.9483 C.3       0 UNK        -0.1998 
      2 C         -81.7137   28.6828  -73.7219 C.2       0 UNK         0.4909 
      3 O         -81.2974   27.5255  -73.7209 O.2       0 UNK        -0.5240 
      4 N         -81.1132   29.6722  -74.4000 N.am      1 UNK        -0.4739 
      5 CA        -79.8438   29.5840  -75.1482 C.3       1 UNK         0.0864 
      6 C6        -78.6215   29.2948  -74.2361 C.3       11 UNK        -0.0881 
      7 S7        -78.3969   30.5309  -72.9141 S.3       11 UNK        -0.2682 
      8 C8        -78.7448   29.5465  -71.4174 C.3       11 UNK         0.0289 
      9 C9        -77.7314   28.4324  -71.1685 C.ar      11 UNK        -0.0687 
     10 C10       -78.1725   27.1360  -70.8841 C.ar      11 UNK        -0.0823 
     11 C11       -77.2577   26.1181  -70.5947 C.ar      11 UNK        -0.0830 
     12 C12       -75.8869   26.3936  -70.6404 C.ar      11 UNK        -0.1021 
     13 C13       -75.4292   27.6874  -70.9195 C.ar      11 UNK        -0.0753 
     14 C14       -76.3592   28.7026  -71.1641 C.ar      11 UNK        -0.0933 
     15 C15       -73.9361   27.9972  -70.8865 C.3       11 UNK         0.0166 
     16 S16       -73.2564   28.4436  -72.5197 S.3       11 UNK        -0.2615 
     17 C17       -73.4984   30.2564  -72.5782 C.3       11 UNK        -0.0865 
     18 CA        -74.4294   30.7245  -73.7300 C.3       10 UNK         0.0862 
     19 C         -74.6306   32.2679  -73.6695 C.2       10 UNK         0.5551 
     20 N         -74.1774   33.0392  -74.6502 N.am      10 UNK        -0.7319 
     21 O         -75.1992   32.7739  -72.7057 O.2       10 UNK        -0.5018 
     22 N         -73.9696   30.1937  -75.0213 N.am      10 UNK        -0.4509 
     23 C         -74.6410   30.1954  -76.1787 C.2       10 UNK         0.4899 
     24 O         -75.7477   30.7129  -76.3252 O.2       10 UNK        -0.4839 
     25 CA        -73.9969   29.4576  -77.3702 C.3       9 UNK         0.0222 
     26 CB        -73.7384   30.4043  -78.5605 C.3       9 UNK        -0.1966 
     27 N         -72.8056   28.6630  -77.0210 N.am      9 UNK        -0.4218 
     28 C         -71.5724   29.0915  -76.7008 C.2       9 UNK         0.5020 
     29 O         -71.2433   30.2775  -76.7185 O.2       9 UNK        -0.5274 
     30 CA        -70.5462   28.0457  -76.2144 C.3       8 UNK         0.0270 
     31 CB        -69.8033   28.5390  -74.9583 C.3       8 UNK        -0.1976 
     32 N         -71.1589   26.7509  -75.9074 N.am      8 UNK        -0.4313 
     33 C         -71.2575   25.7173  -76.7531 C.2       8 UNK         0.5041 
     34 O         -70.7827   25.7121  -77.8891 O.2       8 UNK        -0.5577 
     35 CA        -72.0501   24.4917  -76.2587 C.3       7 UNK         0.0284 
     36 CB        -71.1013   23.4403  -75.6616 C.3       7 UNK        -0.1958 
     37 N         -73.0964   24.8095  -75.2786 N.am      7 UNK        -0.4454 
     38 C         -74.1463   25.6118  -75.4975 C.2       7 UNK         0.5089 
     39 O         -74.3417   26.1984  -76.5625 O.2       7 UNK        -0.5125 
     40 CA        -75.1197   25.7849  -74.3222 C.3       6 UNK         0.0408 
     41 CB        -76.1715   26.8736  -74.5693 C.3       6 UNK        -0.1791 
     42 N         -75.7989   24.5338  -74.0062 N.am      6 UNK        -0.4762 
     43 C         -75.2853   23.5600  -73.2424 C.2       6 UNK         0.5007 
     44 O         -74.1485   23.6001  -72.7672 O.2       6 UNK        -0.5032 
     45 CA        -76.1762   22.3326  -72.9643 C.3       5 UNK         0.0783 
     46 C46       -76.8687   22.4484  -71.5835 C.3       11 UNK        -0.0857 
     47 S47       -78.2290   23.6743  -71.5344 S.3       11 UNK        -0.2512 
     48 C48       -77.7614   24.7523  -70.1440 C.3       11 UNK         0.0225 
     49 N         -77.1429   22.0718  -74.0346 N.am      5 UNK        -0.4615 
     50 C         -76.8363   21.7052  -75.2849 C.2       4 UNK         0.5053 
     51 O         -75.6927   21.4375  -75.6539 O.2       4 UNK        -0.5105 
     52 CA        -77.9908   21.6285  -76.3026 C.3       4 UNK         0.0263 
     53 CB        -78.3496   20.1618  -76.5934 C.3       4 UNK        -0.1981 
     54 N         -79.2115   22.3509  -75.9182 N.am      4 UNK        -0.4224 
     55 C         -79.3110   23.6765  -75.7432 C.2       3 UNK         0.4895 
     56 O         -78.3517   24.4491  -75.7861 O.2       3 UNK        -0.5091 
     57 CA        -80.7167   24.2104  -75.4167 C.3       3 UNK         0.0250 
     58 CB        -80.9160   24.3024  -73.8967 C.3       3 UNK        -0.1996 
     59 N         -80.9686   25.5239  -76.0144 N.am      3 UNK        -0.4254 
     60 C         -81.0771   25.7510  -77.3334 C.2       2 UNK         0.5004 
     61 O         -81.0121   24.8594  -78.1817 O.2       2 UNK        -0.5226 
     62 CA        -81.3359   27.1967  -77.8046 C.3       2 UNK         0.0269 
     63 CB        -82.7784   27.3458  -78.3173 C.3       2 UNK        -0.1926 
     64 N         -81.0997   28.2044  -76.7691 N.am      2 UNK        -0.4687 
     65 C         -79.8918   28.6107  -76.3539 C.2       1 UNK         0.5165 
     66 O         -78.8455   28.2482  -76.8926 O.2       1 UNK        -0.5079 
     67 H67       -83.8136   28.4360  -73.3110 H         1 UNK         0.0900 
     68 H68       -83.2374   30.0838  -73.0456 H         1 UNK         0.0900 
     69 H69       -82.8355   28.8120  -71.8900 H         1 UNK         0.0900 
     70 H70       -81.5206   30.5970  -74.3709 H         1 UNK         0.2959 
     71 H71       -79.6896   30.5692  -75.5912 H         1 UNK         0.1079 
     72 H72       -78.7051   28.2978  -73.8025 H         1 UNK         0.0837 
     73 H73       -77.7003   29.2983  -74.8207 H         1 UNK         0.0837 
     74 H74       -79.7551   29.1423  -71.4913 H         1 UNK         0.0685 
     75 H75       -78.7439   30.2142  -70.5551 H         1 UNK         0.0685 
     76 H76       -79.2327   26.9232  -70.8541 H         1 UNK         0.1434 
     77 H77       -75.1772   25.6075  -70.4208 H         1 UNK         0.1329 
     78 H78       -76.0198   29.7110  -71.3478 H         1 UNK         0.1335 
     79 H79       -73.7397   28.7910  -70.1647 H         1 UNK         0.0680 
     80 H80       -73.3845   27.1276  -70.5260 H         1 UNK         0.0680 
     81 H81       -73.8769   30.6053  -71.6162 H         1 UNK         0.1032 
     82 H82       -72.5139   30.7158  -72.6859 H         1 UNK         0.1032 
     83 H83       -75.4147   30.2891  -73.5596 H         1 UNK         0.0461 
     84 H84       -73.7131   32.6282  -75.4441 H         1 UNK         0.3453 
     85 H85       -74.3118   34.0366  -74.6000 H         1 UNK         0.3453 
     86 H86       -73.0581   29.7636  -75.0105 H         1 UNK         0.2984 
     87 H87       -74.7386   28.7273  -77.6971 H         1 UNK         0.0554 
     88 H88       -73.3015   29.8717  -79.4050 H         1 UNK         0.0847 
     89 H89       -73.0707   31.2245  -78.2965 H         1 UNK         0.0847 
     90 H90       -74.6706   30.8517  -78.9078 H         1 UNK         0.0847 
     91 H91       -72.9951   27.6681  -76.9434 H         1 UNK         0.3141 
     92 H92       -69.8121   27.9245  -77.0137 H         1 UNK         0.0743 
     93 H93       -69.2623   29.4652  -75.1574 H         1 UNK         0.0784 
     94 H94       -70.4884   28.7329  -74.1320 H         1 UNK         0.0784 
     95 H95       -69.0687   27.8080  -74.6200 H         1 UNK         0.0784 
     96 H96       -71.5812   26.6555  -74.9944 H         1 UNK         0.3213 
     97 H97       -72.5427   24.0535  -77.1294 H         1 UNK         0.0855 
     98 H98       -70.3264   23.1624  -76.3776 H         1 UNK         0.0814 
     99 H99       -71.6364   22.5282  -75.3960 H         1 UNK         0.0814 
    100 H100      -70.6006   23.8099  -74.7658 H         1 UNK         0.0814 
    101 H101      -73.0521   24.3416  -74.3789 H         1 UNK         0.3105 
    102 H102      -74.5355   26.0883  -73.4534 H         1 UNK         0.0547 
    103 H103      -76.7892   26.6610  -75.4428 H         1 UNK         0.0837 
    104 H104      -76.8275   26.9719  -73.7057 H         1 UNK         0.0837 
    105 H105      -75.6969   27.8412  -74.7259 H         1 UNK         0.0837 
    106 H106      -76.7191   24.4072  -74.4151 H         1 UNK         0.3020 
    107 H107      -75.5019   21.4739  -72.9253 H         1 UNK         0.1245 
    108 H108      -76.1316   22.6604  -70.8071 H         1 UNK         0.0781 
    109 H109      -77.2957   21.4808  -71.3155 H         1 UNK         0.0781 
    110 H110      -77.0250   24.2654  -69.5040 H         1 UNK         0.0836 
    111 H111      -78.6416   24.8900  -69.5142 H         1 UNK         0.0836 
    112 H112      -78.1058   22.2805  -73.8152 H         1 UNK         0.3022 
    113 H113      -77.6251   22.0797  -77.2274 H         1 UNK         0.0747 
    114 H114      -79.0906   20.0833  -77.3892 H         1 UNK         0.0793 
    115 H115      -77.4717   19.6005  -76.9170 H         1 UNK         0.0793 
    116 H116      -78.7483   19.6612  -75.7101 H         1 UNK         0.0793 
    117 H117      -80.0491   21.7921  -75.8368 H         1 UNK         0.3047 
    118 H118      -81.4574   23.5168  -75.8205 H         1 UNK         0.0822 
    119 H119      -80.7748   23.3322  -73.4191 H         1 UNK         0.0807 
    120 H120      -81.9209   24.6434  -73.6472 H         1 UNK         0.0807 
    121 H121      -80.2079   24.9978  -73.4433 H         1 UNK         0.0807 
    122 H122      -81.0171   26.3085  -75.3724 H         1 UNK         0.2946 
    123 H123      -80.6541   27.3879  -78.6367 H         1 UNK         0.1144 
    124 H124      -82.9841   26.6352  -79.1193 H         1 UNK         0.0793 
    125 H125      -82.9563   28.3436  -78.7191 H         1 UNK         0.0793 
    126 H126      -83.5084   27.1652  -77.5272 H         1 UNK         0.0793 
    127 H127      -81.9081   28.5473  -76.2704 H         1 UNK         0.2896 
@<TRIPOS>BOND
     1    1    2 1    
     2    1   67 1    
     3    1   68 1    
     4    1   69 1    
     5    2    3 2    
     6    2    4 am   BACKBONE|DICT|INTERRES
     7    4    5 1    
     8    4   70 1    
     9    5    6 1    
    10    5   65 1    
    11    5   71 1    
    12    6    7 1    
    13    6   72 1    
    14    6   73 1    
    15    7    8 1    
    16    8    9 1    
    17    8   74 1    
    18    8   75 1    
    19    9   10 ar   
    20    9   14 ar   
    21   10   11 ar   
    22   10   76 1    
    23   11   12 ar   
    24   11   48 1    
    25   12   13 ar   
    26   12   77 1    
    27   13   14 ar   
    28   13   15 1    
    29   14   78 1    
    30   15   16 1    
    31   15   79 1    
    32   15   80 1    
    33   16   17 1    
    34   17   18 1    
    35   17   81 1    
    36   17   82 1    
    37   18   19 1    
    38   18   22 1    
    39   18   83 1    
    40   19   20 am   BACKBONE|DICT|INTERRES
    41   19   21 2    
    42   20   84 1    
    43   20   85 1    
    44   22   23 am   BACKBONE|DICT|INTERRES
    45   22   86 1    
    46   23   24 2    
    47   23   25 1    
    48   25   26 1    
    49   25   27 1    
    50   25   87 1    
    51   26   88 1    
    52   26   89 1    
    53   26   90 1    
    54   27   28 am   BACKBONE|DICT|INTERRES
    55   27   91 1    
    56   28   29 2    
    57   28   30 1    
    58   30   31 1    
    59   30   32 1    
    60   30   92 1    
    61   31   93 1    
    62   31   94 1    
    63   31   95 1    
    64   32   33 am   BACKBONE|DICT|INTERRES
    65   32   96 1    
    66   33   34 2    
    67   33   35 1    
    68   35   36 1    
    69   35   37 1    
    70   35   97 1    
    71   36   98 1    
    72   36   99 1    
    73   36  100 1    
    74   37   38 am   BACKBONE|DICT|INTERRES
    75   37  101 1    
    76   38   39 2    
    77   38   40 1    
    78   40   41 1    
    79   40   42 1    
    80   40  102 1    
    81   41  103 1    
    82   41  104 1    
    83   41  105 1    
    84   42   43 am   BACKBONE|DICT|INTERRES
    85   42  106 1    
    86   43   44 2    
    87   43   45 1    
    88   45   46 1    
    89   45   49 1    
    90   45  107 1    
    91   46   47 1    
    92   46  108 1    
    93   46  109 1    
    94   47   48 1    
    95   48  110 1    
    96   48  111 1    
    97   49   50 am   BACKBONE|DICT|INTERRES
    98   49  112 1    
    99   50   51 2    
   100   50   52 1    
   101   52   53 1    
   102   52   54 1    
   103   52  113 1    
   104   53  114 1    
   105   53  115 1    
   106   53  116 1    
   107   54   55 am   BACKBONE|DICT|INTERRES
   108   54  117 1    
   109   55   56 2    
   110   55   57 1    
   111   57   58 1    
   112   57   59 1    
   113   57  118 1    
   114   58  119 1    
   115   58  120 1    
   116   58  121 1    
   117   59   60 am   BACKBONE|DICT|INTERRES
   118   59  122 1    
   119   60   61 2    
   120   60   62 1    
   121   62   63 1    
   122   62   64 1    
   123   62  123 1    
   124   63  124 1    
   125   63  125 1    
   126   63  126 1    
   127   64   65 am   BACKBONE|DICT|INTERRES
   128   64  127 1    
   129   65   66 2    
@<TRIPOS>SUBSTRUCTURE
     1 UNK         1 GROUP             0       ****    0 ROOT    
