@<TRIPOS>MOLECULE
3R135
127   129    1
SMALL
USER_CHARGES


@<TRIPOS>ATOM
      1 CA        -79.0054   30.3115  -76.0240 C.3       0 UNK        -0.1998 
      2 C         -79.3026   29.2941  -74.9335 C.2       0 UNK         0.4909 
      3 O         -78.5311   28.3543  -74.7529 O.2       0 UNK        -0.5240 
      4 N         -80.4173   29.4681  -74.2104 N.am      1 UNK        -0.4739 
      5 CA        -80.8769   28.5635  -73.1534 C.3       1 UNK         0.0864 
      6 C6        -81.7719   29.3052  -72.1255 C.3       11 UNK        -0.0881 
      7 S7        -82.0038   28.3409  -70.5900 S.3       11 UNK        -0.2682 
      8 C8        -80.8685   29.1708  -69.4337 C.3       11 UNK         0.0289 
      9 C9        -79.4214   29.1001  -69.8993 C.ar      11 UNK        -0.0687 
     10 C10       -78.7129   27.8974  -69.8275 C.ar      11 UNK        -0.0823 
     11 C11       -77.3845   27.8283  -70.2595 C.ar      11 UNK        -0.0830 
     12 C12       -76.7586   28.9820  -70.7468 C.ar      11 UNK        -0.1021 
     13 C13       -77.4564   30.1925  -70.8163 C.ar      11 UNK        -0.0753 
     14 C14       -78.7883   30.2421  -70.3964 C.ar      11 UNK        -0.0933 
     15 C15       -76.7758   31.4601  -71.3130 C.3       11 UNK         0.0166 
     16 S16       -76.6319   31.4964  -73.1279 S.3       11 UNK        -0.2615 
     17 C17       -74.8972   30.9821  -73.3744 C.3       11 UNK        -0.0865 
     18 CA        -74.6993   29.9730  -74.5445 C.3       10 UNK         0.0862 
     19 C         -74.5738   30.6644  -75.9373 C.2       10 UNK         0.5551 
     20 N         -73.6180   30.2909  -76.7808 N.am      10 UNK        -0.7319 
     21 O         -75.3716   31.5324  -76.2788 O.2       10 UNK        -0.5018 
     22 N         -73.6488   28.9800  -74.2560 N.am      10 UNK        -0.4509 
     23 C         -72.3790   29.2306  -73.9072 C.2       10 UNK         0.4899 
     24 O         -71.9076   30.3607  -73.7865 O.2       10 UNK        -0.4839 
     25 CA        -71.4788   28.0146  -73.6552 C.3       9 UNK         0.0222 
     26 CB        -71.7628   27.3978  -72.2741 C.3       9 UNK        -0.1966 
     27 N         -71.6434   27.0024  -74.6992 N.am      9 UNK        -0.4218 
     28 C         -70.6627   26.2353  -75.1904 C.2       9 UNK         0.5020 
     29 O         -69.4947   26.2718  -74.7998 O.2       9 UNK        -0.5274 
     30 CA        -71.0487   25.2631  -76.3185 C.3       8 UNK         0.0270 
     31 CB        -71.6983   23.9931  -75.7438 C.3       8 UNK        -0.1976 
     32 N         -71.9464   25.8635  -77.3076 N.am      8 UNK        -0.4313 
     33 C         -71.6319   26.8601  -78.1449 C.2       8 UNK         0.5041 
     34 O         -70.5125   27.3693  -78.2051 O.2       8 UNK        -0.5577 
     35 CA        -72.7451   27.4044  -79.0633 C.3       7 UNK         0.0284 
     36 CB        -72.7896   26.6365  -80.3992 C.3       7 UNK        -0.1958 
     37 N         -74.0739   27.4857  -78.4349 N.am      7 UNK        -0.4454 
     38 C         -74.8673   26.4878  -78.0245 C.2       7 UNK         0.5089 
     39 O         -74.6063   25.2918  -78.1697 O.2       7 UNK        -0.5125 
     40 CA        -76.1444   26.9056  -77.2792 C.3       6 UNK         0.0408 
     41 CB        -77.3712   26.7833  -78.1950 C.3       6 UNK        -0.1791 
     42 N         -76.3737   26.1179  -76.0671 N.am      6 UNK        -0.4762 
     43 C         -75.5142   25.9567  -75.0511 C.2       6 UNK         0.5007 
     44 O         -74.3800   26.4365  -75.0267 O.2       6 UNK        -0.5032 
     45 CA        -76.0072   25.1497  -73.8417 C.3       5 UNK         0.0783 
     46 C46       -76.9121   26.0363  -72.9549 C.3       11 UNK        -0.0857 
     47 S47       -77.2923   25.2685  -71.3480 S.3       11 UNK        -0.2512 
     48 C48       -76.6266   26.5077  -70.1875 C.3       11 UNK         0.0225 
     49 N         -76.6915   23.9363  -74.2903 N.am      5 UNK        -0.4615 
     50 C         -76.1085   22.7411  -74.4419 C.2       4 UNK         0.5053 
     51 O         -74.9211   22.5255  -74.1987 O.2       4 UNK        -0.5105 
     52 CA        -76.9952   21.5756  -74.9220 C.3       4 UNK         0.0263 
     53 CB        -77.4618   20.7347  -73.7223 C.3       4 UNK        -0.1981 
     54 N         -78.1690   22.0159  -75.6800 N.am      4 UNK        -0.4224 
     55 C         -78.1398   22.4288  -76.9550 C.2       3 UNK         0.4895 
     56 O         -77.1342   22.3895  -77.6633 O.2       3 UNK        -0.5091 
     57 CA        -79.4494   22.9946  -77.5423 C.3       3 UNK         0.0250 
     58 CB        -80.1899   21.9094  -78.3408 C.3       3 UNK        -0.1996 
     59 N         -80.3706   23.5844  -76.5590 N.am      3 UNK        -0.4254 
     60 C         -80.0697   24.6009  -75.7399 C.2       2 UNK         0.5004 
     61 O         -78.9510   25.1126  -75.6758 O.2       2 UNK        -0.5226 
     62 CA        -81.1744   25.0923  -74.8011 C.3       2 UNK         0.0269 
     63 CB        -81.4335   24.0749  -73.6742 C.3       2 UNK        -0.1926 
     64 N         -80.7548   26.3632  -74.2172 N.am      2 UNK        -0.4687 
     65 C         -81.5641   27.3283  -73.7761 C.2       1 UNK         0.5165 
     66 O         -82.7927   27.2783  -73.8698 O.2       1 UNK        -0.5079 
     67 H67       -78.9462   29.8154  -76.9923 H         1 UNK         0.0900 
     68 H68       -78.0481   30.7948  -75.8313 H         1 UNK         0.0900 
     69 H69       -79.7707   31.0849  -76.0817 H         1 UNK         0.0900 
     70 H70       -81.0304   30.2422  -74.4225 H         1 UNK         0.2959 
     71 H71       -79.9939   28.2085  -72.6152 H         1 UNK         0.1079 
     72 H72       -81.3272   30.2675  -71.8684 H         1 UNK         0.0837 
     73 H73       -82.7503   29.5416  -72.5478 H         1 UNK         0.0837 
     74 H74       -81.1856   30.2065  -69.3008 H         1 UNK         0.0685 
     75 H75       -80.9550   28.6980  -68.4544 H         1 UNK         0.0685 
     76 H76       -79.2010   27.0096  -69.4485 H         1 UNK         0.1434 
     77 H77       -75.7290   28.9394  -71.0731 H         1 UNK         0.1329 
     78 H78       -79.3318   31.1755  -70.4498 H         1 UNK         0.1335 
     79 H79       -77.3478   32.3363  -71.0037 H         1 UNK         0.0680 
     80 H80       -75.7981   31.5696  -70.8420 H         1 UNK         0.0680 
     81 H81       -74.5462   30.5330  -72.4453 H         1 UNK         0.1032 
     82 H82       -74.2781   31.8703  -73.5135 H         1 UNK         0.1032 
     83 H83       -75.6056   29.3696  -74.6170 H         1 UNK         0.0461 
     84 H84       -73.5313   30.7744  -77.6608 H         1 UNK         0.3453 
     85 H85       -72.9140   29.6349  -76.4859 H         1 UNK         0.3453 
     86 H86       -73.9388   28.0131  -74.3825 H         1 UNK         0.2984 
     87 H87       -70.4487   28.3777  -73.6643 H         1 UNK         0.0554 
     88 H88       -71.0597   26.5960  -72.0479 H         1 UNK         0.0847 
     89 H89       -72.7705   26.9844  -72.2148 H         1 UNK         0.0847 
     90 H90       -71.6671   28.1443  -71.4844 H         1 UNK         0.0847 
     91 H91       -72.5871   26.8537  -75.0495 H         1 UNK         0.3141 
     92 H92       -70.1312   24.9733  -76.8349 H         1 UNK         0.0743 
     93 H93       -72.6433   24.2097  -75.2433 H         1 UNK         0.0784 
     94 H94       -71.8971   23.2605  -76.5262 H         1 UNK         0.0784 
     95 H95       -71.0443   23.5163  -75.0125 H         1 UNK         0.0784 
     96 H96       -72.8916   25.4920  -77.3686 H         1 UNK         0.3213 
     97 H97       -72.4720   28.4356  -79.2945 H         1 UNK         0.0855 
     98 H98       -71.8260   26.6893  -80.9077 H         1 UNK         0.0814 
     99 H99       -73.5352   27.0568  -81.0740 H         1 UNK         0.0814 
    100 H100      -73.0207   25.5802  -80.2592 H         1 UNK         0.0814 
    101 H101      -74.3799   28.4277  -78.2295 H         1 UNK         0.3105 
    102 H102      -76.0503   27.9478  -76.9680 H         1 UNK         0.0547 
    103 H103      -77.2520   27.3864  -79.0958 H         1 UNK         0.0837 
    104 H104      -77.5329   25.7512  -78.5088 H         1 UNK         0.0837 
    105 H105      -78.2757   27.1253  -77.6909 H         1 UNK         0.0837 
    106 H106      -77.3040   25.7135  -75.9715 H         1 UNK         0.3020 
    107 H107      -75.1239   24.8777  -73.2586 H         1 UNK         0.1245 
    108 H108      -77.8591   26.2399  -73.4533 H         1 UNK         0.0781 
    109 H109      -76.4485   27.0103  -72.7889 H         1 UNK         0.0781 
    110 H110      -75.5639   26.6538  -70.3878 H         1 UNK         0.0836 
    111 H111      -76.6940   26.1126  -69.1729 H         1 UNK         0.0836 
    112 H112      -77.6520   24.0595  -74.5873 H         1 UNK         0.3022 
    113 H113      -76.3829   20.9402  -75.5659 H         1 UNK         0.0747 
    114 H114      -78.0370   19.8666  -74.0449 H         1 UNK         0.0793 
    115 H115      -76.6092   20.3626  -73.1523 H         1 UNK         0.0793 
    116 H116      -78.0818   21.3155  -73.0380 H         1 UNK         0.0793 
    117 H117      -79.0454   22.0628  -75.1817 H         1 UNK         0.3047 
    118 H118      -79.1662   23.7908  -78.2339 H         1 UNK         0.0822 
    119 H119      -81.0569   22.3188  -78.8597 H         1 UNK         0.0807 
    120 H120      -80.5336   21.0983  -77.6975 H         1 UNK         0.0807 
    121 H121      -79.5401   21.4703  -79.0994 H         1 UNK         0.0807 
    122 H122      -81.3067   23.2050  -76.5388 H         1 UNK         0.2946 
    123 H123      -82.0827   25.2407  -75.3898 H         1 UNK         0.1144 
    124 H124      -81.7554   23.1120  -74.0724 H         1 UNK         0.0793 
    125 H125      -82.2189   24.4208  -73.0018 H         1 UNK         0.0793 
    126 H126      -80.5376   23.9012  -73.0761 H         1 UNK         0.0793 
    127 H127      -79.7560   26.5428  -74.2615 H         1 UNK         0.2896 
@<TRIPOS>BOND
     1    1    2 1    
     2    1   67 1    
     3    1   68 1    
     4    1   69 1    
     5    2    3 2    
     6    2    4 am   BACKBONE|DICT|INTERRES
     7    4    5 1    
     8    4   70 1    
     9    5    6 1    
    10    5   65 1    
    11    5   71 1    
    12    6    7 1    
    13    6   72 1    
    14    6   73 1    
    15    7    8 1    
    16    8    9 1    
    17    8   74 1    
    18    8   75 1    
    19    9   10 ar   
    20    9   14 ar   
    21   10   11 ar   
    22   10   76 1    
    23   11   12 ar   
    24   11   48 1    
    25   12   13 ar   
    26   12   77 1    
    27   13   14 ar   
    28   13   15 1    
    29   14   78 1    
    30   15   16 1    
    31   15   79 1    
    32   15   80 1    
    33   16   17 1    
    34   17   18 1    
    35   17   81 1    
    36   17   82 1    
    37   18   19 1    
    38   18   22 1    
    39   18   83 1    
    40   19   20 am   BACKBONE|DICT|INTERRES
    41   19   21 2    
    42   20   84 1    
    43   20   85 1    
    44   22   23 am   BACKBONE|DICT|INTERRES
    45   22   86 1    
    46   23   24 2    
    47   23   25 1    
    48   25   26 1    
    49   25   27 1    
    50   25   87 1    
    51   26   88 1    
    52   26   89 1    
    53   26   90 1    
    54   27   28 am   BACKBONE|DICT|INTERRES
    55   27   91 1    
    56   28   29 2    
    57   28   30 1    
    58   30   31 1    
    59   30   32 1    
    60   30   92 1    
    61   31   93 1    
    62   31   94 1    
    63   31   95 1    
    64   32   33 am   BACKBONE|DICT|INTERRES
    65   32   96 1    
    66   33   34 2    
    67   33   35 1    
    68   35   36 1    
    69   35   37 1    
    70   35   97 1    
    71   36   98 1    
    72   36   99 1    
    73   36  100 1    
    74   37   38 am   BACKBONE|DICT|INTERRES
    75   37  101 1    
    76   38   39 2    
    77   38   40 1    
    78   40   41 1    
    79   40   42 1    
    80   40  102 1    
    81   41  103 1    
    82   41  104 1    
    83   41  105 1    
    84   42   43 am   BACKBONE|DICT|INTERRES
    85   42  106 1    
    86   43   44 2    
    87   43   45 1    
    88   45   46 1    
    89   45   49 1    
    90   45  107 1    
    91   46   47 1    
    92   46  108 1    
    93   46  109 1    
    94   47   48 1    
    95   48  110 1    
    96   48  111 1    
    97   49   50 am   BACKBONE|DICT|INTERRES
    98   49  112 1    
    99   50   51 2    
   100   50   52 1    
   101   52   53 1    
   102   52   54 1    
   103   52  113 1    
   104   53  114 1    
   105   53  115 1    
   106   53  116 1    
   107   54   55 am   BACKBONE|DICT|INTERRES
   108   54  117 1    
   109   55   56 2    
   110   55   57 1    
   111   57   58 1    
   112   57   59 1    
   113   57  118 1    
   114   58  119 1    
   115   58  120 1    
   116   58  121 1    
   117   59   60 am   BACKBONE|DICT|INTERRES
   118   59  122 1    
   119   60   61 2    
   120   60   62 1    
   121   62   63 1    
   122   62   64 1    
   123   62  123 1    
   124   63  124 1    
   125   63  125 1    
   126   63  126 1    
   127   64   65 am   BACKBONE|DICT|INTERRES
   128   64  127 1    
   129   65   66 2    
@<TRIPOS>SUBSTRUCTURE
     1 UNK         1 GROUP             0       ****    0 ROOT    
