@<TRIPOS>MOLECULE
3R135
127   129    1
SMALL
USER_CHARGES


@<TRIPOS>ATOM
      1 CA        -84.7360   27.4602  -75.6898 C.3       0 UNK        -0.1998 
      2 C         -83.2521   27.4682  -76.0242 C.2       0 UNK         0.4909 
      3 O         -82.8877   27.4077  -77.1985 O.2       0 UNK        -0.5240 
      4 N         -82.3914   27.5372  -75.0003 N.am      1 UNK        -0.4739 
      5 CA        -80.9280   27.5420  -75.1322 C.3       1 UNK         0.0864 
      6 C6        -80.2506   28.2745  -73.9490 C.3       11 UNK        -0.0881 
      7 S7        -80.6030   27.5524  -72.3062 S.3       11 UNK        -0.2682 
      8 C8        -80.2549   28.9593  -71.2021 C.3       11 UNK         0.0289 
      9 C9        -78.7844   29.3588  -71.2137 C.ar      11 UNK        -0.0687 
     10 C10       -78.3282   30.3163  -72.1246 C.ar      11 UNK        -0.0823 
     11 C11       -76.9864   30.7031  -72.1369 C.ar      11 UNK        -0.0830 
     12 C12       -76.0971   30.1345  -71.2207 C.ar      11 UNK        -0.1021 
     13 C13       -76.5405   29.1844  -70.2962 C.ar      11 UNK        -0.0753 
     14 C14       -77.8858   28.7974  -70.2988 C.ar      11 UNK        -0.0933 
     15 C15       -75.5650   28.5955  -69.2879 C.3       11 UNK         0.0166 
     16 S16       -74.8710   27.0166  -69.8761 S.3       11 UNK        -0.2615 
     17 C17       -73.0934   27.1678  -69.4642 C.3       11 UNK        -0.0865 
     18 CA        -72.1535   26.9794  -70.6874 C.3       10 UNK         0.0862 
     19 C         -72.0317   25.4856  -71.1212 C.2       10 UNK         0.5551 
     20 N         -72.2664   25.1201  -72.3763 N.am      10 UNK        -0.7319 
     21 O         -71.6952   24.6382  -70.2974 O.2       10 UNK        -0.5018 
     22 N         -72.4861   27.9174  -71.7692 N.am      10 UNK        -0.4509 
     23 C         -71.6439   28.3228  -72.7249 C.2       10 UNK         0.4899 
     24 O         -70.4407   28.0568  -72.7551 O.2       10 UNK        -0.4839 
     25 CA        -72.2654   29.1725  -73.8453 C.3       9 UNK         0.0222 
     26 CB        -71.7880   30.6307  -73.7505 C.3       9 UNK        -0.1966 
     27 N         -71.9839   28.6484  -75.1860 N.am      9 UNK        -0.4218 
     28 C         -72.2902   27.4142  -75.6077 C.2       9 UNK         0.5020 
     29 O         -72.7956   26.5476  -74.8912 O.2       9 UNK        -0.5274 
     30 CA        -71.9750   27.0831  -77.0698 C.3       8 UNK         0.0270 
     31 CB        -70.6384   26.3212  -77.1668 C.3       8 UNK        -0.1976 
     32 N         -73.0748   26.2833  -77.6098 N.am      8 UNK        -0.4313 
     33 C         -73.2753   25.9883  -78.9010 C.2       8 UNK         0.5041 
     34 O         -72.5499   26.3841  -79.8147 O.2       8 UNK        -0.5577 
     35 CA        -74.4942   25.1167  -79.2396 C.3       7 UNK         0.0284 
     36 CB        -74.3987   23.7345  -78.5683 C.3       7 UNK        -0.1958 
     37 N         -75.7222   25.7819  -78.8120 N.am      7 UNK        -0.4454 
     38 C         -76.6609   26.2940  -79.6193 C.2       7 UNK         0.5089 
     39 O         -76.6346   26.2031  -80.8474 O.2       7 UNK        -0.5125 
     40 CA        -77.8354   27.0412  -78.9499 C.3       6 UNK         0.0408 
     41 CB        -79.0605   26.1196  -78.8449 C.3       6 UNK        -0.1791 
     42 N         -77.4995   27.5825  -77.6251 N.am      6 UNK        -0.4762 
     43 C         -76.6158   28.5768  -77.4397 C.2       6 UNK         0.5007 
     44 O         -76.1450   29.2281  -78.3733 O.2       6 UNK        -0.5032 
     45 CA        -76.1160   28.8945  -76.0103 C.3       5 UNK         0.0783 
     46 C46       -76.6165   30.2861  -75.5432 C.3       11 UNK        -0.0857 
     47 S47       -75.4288   31.0621  -74.4000 S.3       11 UNK        -0.2512 
     48 C48       -76.5015   31.7636  -73.1121 C.3       11 UNK         0.0225 
     49 N         -76.3418   27.8607  -74.9869 N.am      5 UNK        -0.4615 
     50 C         -75.9665   26.5747  -75.0518 C.2       4 UNK         0.5053 
     51 O         -75.4836   26.0586  -76.0602 O.2       4 UNK        -0.5105 
     52 CA        -76.1620   25.6975  -73.8094 C.3       4 UNK         0.0263 
     53 CB        -76.9666   26.3592  -72.6792 C.3       4 UNK        -0.1981 
     54 N         -76.8324   24.4770  -74.2345 N.am      4 UNK        -0.4224 
     55 C         -76.6436   23.2511  -73.7343 C.2       3 UNK         0.4895 
     56 O         -75.8555   22.9987  -72.8215 O.2       3 UNK        -0.5091 
     57 CA        -77.4602   22.1062  -74.3760 C.3       3 UNK         0.0250 
     58 CB        -77.7967   20.9807  -73.3737 C.3       3 UNK        -0.1996 
     59 N         -78.6657   22.5626  -75.0863 N.am      3 UNK        -0.4254 
     60 C         -79.7268   23.1907  -74.5566 C.2       2 UNK         0.5004 
     61 O         -79.8918   23.3942  -73.3520 O.2       2 UNK        -0.5226 
     62 CA        -80.7806   23.6916  -75.5568 C.3       2 UNK         0.0269 
     63 CB        -82.0426   22.8153  -75.5045 C.3       2 UNK        -0.1926 
     64 N         -81.1506   25.0860  -75.3078 N.am      2 UNK        -0.4687 
     65 C         -80.3240   26.1407  -75.3841 C.2       1 UNK         0.5165 
     66 O         -79.1277   26.0474  -75.6705 O.2       1 UNK        -0.5079 
     67 H67       -84.9124   27.5177  -74.6158 H         1 UNK         0.0900 
     68 H68       -85.1996   26.5469  -76.0615 H         1 UNK         0.0900 
     69 H69       -85.2306   28.3096  -76.1602 H         1 UNK         0.0900 
     70 H70       -82.7377   27.5790  -74.0513 H         1 UNK         0.2959 
     71 H71       -80.6835   28.1153  -76.0297 H         1 UNK         0.1079 
     72 H72       -80.5863   29.3123  -73.9464 H         1 UNK         0.0837 
     73 H73       -79.1704   28.3160  -74.0938 H         1 UNK         0.0837 
     74 H74       -80.8807   29.8071  -71.4853 H         1 UNK         0.0685 
     75 H75       -80.5548   28.6893  -70.1885 H         1 UNK         0.0685 
     76 H76       -79.0218   30.7678  -72.8201 H         1 UNK         0.1434 
     77 H77       -75.0597   30.4407  -71.2239 H         1 UNK         0.1329 
     78 H78       -78.2326   28.0593  -69.5885 H         1 UNK         0.1335 
     79 H79       -76.0684   28.4274  -68.3347 H         1 UNK         0.0680 
     80 H80       -74.7740   29.3186  -69.0871 H         1 UNK         0.0680 
     81 H81       -72.8580   26.4464  -68.6794 H         1 UNK         0.1032 
     82 H82       -72.8956   28.1416  -69.0159 H         1 UNK         0.1032 
     83 H83       -71.1520   27.2440  -70.3426 H         1 UNK         0.0461 
     84 H84       -72.5056   25.7959  -73.0948 H         1 UNK         0.3453 
     85 H85       -72.1805   24.1478  -72.6227 H         1 UNK         0.3453 
     86 H86       -73.4635   28.1605  -71.8364 H         1 UNK         0.2984 
     87 H87       -73.3497   29.1588  -73.7232 H         1 UNK         0.0554 
     88 H88       -72.2727   31.2591  -74.4978 H         1 UNK         0.0847 
     89 H89       -70.7091   30.7124  -73.8893 H         1 UNK         0.0847 
     90 H90       -72.0243   31.0544  -72.7735 H         1 UNK         0.0847 
     91 H91       -71.5267   29.2803  -75.8273 H         1 UNK         0.3141 
     92 H92       -71.9093   28.0114  -77.6410 H         1 UNK         0.0743 
     93 H93       -70.6865   25.3629  -76.6478 H         1 UNK         0.0784 
     94 H94       -70.3581   26.1274  -78.2020 H         1 UNK         0.0784 
     95 H95       -69.8272   26.8955  -76.7172 H         1 UNK         0.0784 
     96 H96       -73.7517   25.9767  -76.9115 H         1 UNK         0.3213 
     97 H97       -74.5010   24.9640  -80.3211 H         1 UNK         0.0855 
     98 H98       -74.4332   23.8020  -77.4801 H         1 UNK         0.0814 
     99 H99       -73.4675   23.2339  -78.8366 H         1 UNK         0.0814 
    100 H100      -75.2169   23.0879  -78.8854 H         1 UNK         0.0814 
    101 H101      -75.8112   25.9370  -77.8085 H         1 UNK         0.3105 
    102 H102      -78.1029   27.8786  -79.5978 H         1 UNK         0.0547 
    103 H103      -79.3553   25.7512  -79.8283 H         1 UNK         0.0837 
    104 H104      -78.8574   25.2487  -78.2211 H         1 UNK         0.0837 
    105 H105      -79.9201   26.6442  -78.4278 H         1 UNK         0.0837 
    106 H106      -77.8599   27.0783  -76.8199 H         1 UNK         0.3020 
    107 H107      -75.0314   28.9519  -76.1273 H         1 UNK         0.1245 
    108 H108      -77.6036   30.2102  -75.0847 H         1 UNK         0.0781 
    109 H109      -76.7282   30.9795  -76.3796 H         1 UNK         0.0781 
    110 H110      -77.3371   32.2892  -73.5772 H         1 UNK         0.0836 
    111 H111      -75.9380   32.5187  -72.5621 H         1 UNK         0.0836 
    112 H112      -76.7332   28.1906  -74.1171 H         1 UNK         0.3022 
    113 H113      -75.1627   25.4599  -73.4383 H         1 UNK         0.0747 
    114 H114      -77.0145   25.7137  -71.8022 H         1 UNK         0.0793 
    115 H115      -76.5092   27.2946  -72.3615 H         1 UNK         0.0793 
    116 H116      -77.9893   26.5663  -72.9871 H         1 UNK         0.0793 
    117 H117      -77.4936   24.6014  -74.9912 H         1 UNK         0.3047 
    118 H118      -76.8093   21.6766  -75.1391 H         1 UNK         0.0822 
    119 H119      -78.3650   20.1814  -73.8493 H         1 UNK         0.0807 
    120 H120      -78.3784   21.3503  -72.5288 H         1 UNK         0.0807 
    121 H121      -76.8885   20.5328  -72.9685 H         1 UNK         0.0807 
    122 H122      -78.6408   22.4365  -76.0891 H         1 UNK         0.2946 
    123 H123      -80.3670   23.6403  -76.5664 H         1 UNK         0.1144 
    124 H124      -82.7768   23.1301  -76.2465 H         1 UNK         0.0793 
    125 H125      -82.5182   22.8522  -74.5235 H         1 UNK         0.0793 
    126 H126      -81.8019   21.7715  -75.7106 H         1 UNK         0.0793 
    127 H127      -82.1069   25.2616  -75.0387 H         1 UNK         0.2896 
@<TRIPOS>BOND
     1    1    2 1    
     2    1   67 1    
     3    1   68 1    
     4    1   69 1    
     5    2    3 2    
     6    2    4 am   BACKBONE|DICT|INTERRES
     7    4    5 1    
     8    4   70 1    
     9    5    6 1    
    10    5   65 1    
    11    5   71 1    
    12    6    7 1    
    13    6   72 1    
    14    6   73 1    
    15    7    8 1    
    16    8    9 1    
    17    8   74 1    
    18    8   75 1    
    19    9   10 ar   
    20    9   14 ar   
    21   10   11 ar   
    22   10   76 1    
    23   11   12 ar   
    24   11   48 1    
    25   12   13 ar   
    26   12   77 1    
    27   13   14 ar   
    28   13   15 1    
    29   14   78 1    
    30   15   16 1    
    31   15   79 1    
    32   15   80 1    
    33   16   17 1    
    34   17   18 1    
    35   17   81 1    
    36   17   82 1    
    37   18   19 1    
    38   18   22 1    
    39   18   83 1    
    40   19   20 am   BACKBONE|DICT|INTERRES
    41   19   21 2    
    42   20   84 1    
    43   20   85 1    
    44   22   23 am   BACKBONE|DICT|INTERRES
    45   22   86 1    
    46   23   24 2    
    47   23   25 1    
    48   25   26 1    
    49   25   27 1    
    50   25   87 1    
    51   26   88 1    
    52   26   89 1    
    53   26   90 1    
    54   27   28 am   BACKBONE|DICT|INTERRES
    55   27   91 1    
    56   28   29 2    
    57   28   30 1    
    58   30   31 1    
    59   30   32 1    
    60   30   92 1    
    61   31   93 1    
    62   31   94 1    
    63   31   95 1    
    64   32   33 am   BACKBONE|DICT|INTERRES
    65   32   96 1    
    66   33   34 2    
    67   33   35 1    
    68   35   36 1    
    69   35   37 1    
    70   35   97 1    
    71   36   98 1    
    72   36   99 1    
    73   36  100 1    
    74   37   38 am   BACKBONE|DICT|INTERRES
    75   37  101 1    
    76   38   39 2    
    77   38   40 1    
    78   40   41 1    
    79   40   42 1    
    80   40  102 1    
    81   41  103 1    
    82   41  104 1    
    83   41  105 1    
    84   42   43 am   BACKBONE|DICT|INTERRES
    85   42  106 1    
    86   43   44 2    
    87   43   45 1    
    88   45   46 1    
    89   45   49 1    
    90   45  107 1    
    91   46   47 1    
    92   46  108 1    
    93   46  109 1    
    94   47   48 1    
    95   48  110 1    
    96   48  111 1    
    97   49   50 am   BACKBONE|DICT|INTERRES
    98   49  112 1    
    99   50   51 2    
   100   50   52 1    
   101   52   53 1    
   102   52   54 1    
   103   52  113 1    
   104   53  114 1    
   105   53  115 1    
   106   53  116 1    
   107   54   55 am   BACKBONE|DICT|INTERRES
   108   54  117 1    
   109   55   56 2    
   110   55   57 1    
   111   57   58 1    
   112   57   59 1    
   113   57  118 1    
   114   58  119 1    
   115   58  120 1    
   116   58  121 1    
   117   59   60 am   BACKBONE|DICT|INTERRES
   118   59  122 1    
   119   60   61 2    
   120   60   62 1    
   121   62   63 1    
   122   62   64 1    
   123   62  123 1    
   124   63  124 1    
   125   63  125 1    
   126   63  126 1    
   127   64   65 am   BACKBONE|DICT|INTERRES
   128   64  127 1    
   129   65   66 2    
@<TRIPOS>SUBSTRUCTURE
     1 UNK         1 GROUP             0       ****    0 ROOT    
