@<TRIPOS>MOLECULE
3R135
127   129    1
SMALL
USER_CHARGES


@<TRIPOS>ATOM
      1 CA        -81.3422   26.6787  -71.9898 C.3       0 UNK        -0.1998 
      2 C         -81.4024   27.4599  -73.2940 C.2       0 UNK         0.4909 
      3 O         -82.3038   28.2765  -73.4836 O.2       0 UNK        -0.5240 
      4 N         -80.4488   27.2097  -74.1938 N.am      1 UNK        -0.4739 
      5 CA        -80.3597   27.7888  -75.5293 C.3       1 UNK         0.0864 
      6 C6        -79.7962   29.2378  -75.5772 C.3       11 UNK        -0.0881 
      7 S7        -78.1727   29.4899  -74.7735 S.3       11 UNK        -0.2682 
      8 C8        -78.6587   30.1631  -73.1505 C.3       11 UNK         0.0289 
      9 C9        -77.8255   29.5502  -72.0363 C.ar      11 UNK        -0.0687 
     10 C10       -77.9037   28.1767  -71.7982 C.ar      11 UNK        -0.0823 
     11 C11       -77.1361   27.5775  -70.8012 C.ar      11 UNK        -0.0830 
     12 C12       -76.2989   28.3706  -70.0140 C.ar      11 UNK        -0.1021 
     13 C13       -76.2083   29.7483  -70.2392 C.ar      11 UNK        -0.0753 
     14 C14       -76.9780   30.3364  -71.2492 C.ar      11 UNK        -0.0933 
     15 C15       -75.2665   30.5853  -69.3893 C.3       11 UNK         0.0166 
     16 S16       -73.5293   30.2613  -69.8258 S.3       11 UNK        -0.2615 
     17 C17       -73.2211   31.4760  -71.1558 C.3       11 UNK        -0.0865 
     18 CA        -73.5608   30.9999  -72.6020 C.3       10 UNK         0.0862 
     19 C         -73.2166   32.1013  -73.6499 C.2       10 UNK         0.5551 
     20 N         -72.5115   31.8082  -74.7363 N.am      10 UNK        -0.7319 
     21 O         -73.6249   33.2489  -73.4869 O.2       10 UNK        -0.5018 
     22 N         -73.0778   29.6514  -72.9514 N.am      10 UNK        -0.4509 
     23 C         -71.8269   29.1855  -72.8487 C.2       10 UNK         0.4899 
     24 O         -70.8837   29.8053  -72.3564 O.2       10 UNK        -0.4839 
     25 CA        -71.5816   27.7928  -73.4565 C.3       9 UNK         0.0222 
     26 CB        -72.1091   26.6886  -72.5254 C.3       9 UNK        -0.1966 
     27 N         -72.1425   27.6343  -74.8081 N.am      9 UNK        -0.4218 
     28 C         -71.7752   28.3812  -75.8638 C.2       9 UNK         0.5020 
     29 O         -71.0187   29.3502  -75.7887 O.2       9 UNK        -0.5274 
     30 CA        -72.3283   27.9913  -77.2371 C.3       8 UNK         0.0270 
     31 CB        -71.6553   26.7049  -77.7473 C.3       8 UNK        -0.1976 
     32 N         -73.7743   27.7938  -77.2015 N.am      8 UNK        -0.4313 
     33 C         -74.6730   28.5537  -77.8445 C.2       8 UNK         0.5041 
     34 O         -74.3885   29.6020  -78.4273 O.2       8 UNK        -0.5577 
     35 CA        -76.1331   28.0466  -77.8615 C.3       7 UNK         0.0284 
     36 CB        -76.9107   28.4858  -79.1196 C.3       7 UNK        -0.1958 
     37 N         -76.2476   26.5970  -77.6643 N.am      7 UNK        -0.4454 
     38 C         -75.6804   25.6218  -78.3918 C.2       7 UNK         0.5089 
     39 O         -75.0994   25.8134  -79.4607 O.2       7 UNK        -0.5125 
     40 CA        -75.7327   24.1974  -77.8021 C.3       6 UNK         0.0408 
     41 CB        -74.4692   23.3850  -78.1559 C.3       6 UNK        -0.1791 
     42 N         -75.9716   24.1410  -76.3504 N.am      6 UNK        -0.4762 
     43 C         -75.2269   24.6869  -75.3728 C.2       6 UNK         0.5007 
     44 O         -74.2638   25.4323  -75.5815 O.2       6 UNK        -0.5032 
     45 CA        -75.6067   24.3545  -73.9162 C.3       5 UNK         0.0783 
     46 C46       -75.8652   25.6301  -73.0826 C.3       11 UNK        -0.0857 
     47 S47       -75.7147   25.2660  -71.2981 S.3       11 UNK        -0.2512 
     48 C48       -77.1897   26.0712  -70.6028 C.3       11 UNK         0.0225 
     49 N         -76.7434   23.4325  -73.8192 N.am      5 UNK        -0.4615 
     50 C         -76.6555   22.1045  -73.7191 C.2       4 UNK         0.5053 
     51 O         -75.5969   21.4821  -73.8027 O.2       4 UNK        -0.5105 
     52 CA        -77.9645   21.3346  -73.4659 C.3       4 UNK         0.0263 
     53 CB        -78.4355   21.5175  -72.0094 C.3       4 UNK        -0.1981 
     54 N         -79.0487   21.6146  -74.4191 N.am      4 UNK        -0.4224 
     55 C         -79.7272   22.7532  -74.6155 C.2       3 UNK         0.4895 
     56 O         -79.5159   23.8088  -74.0115 O.2       3 UNK        -0.5091 
     57 CA        -80.8551   22.6950  -75.6578 C.3       3 UNK         0.0250 
     58 CB        -82.2270   22.7722  -74.9683 C.3       3 UNK        -0.1996 
     59 N         -80.7308   23.7983  -76.6065 N.am      3 UNK        -0.4254 
     60 C         -79.7889   23.8852  -77.5565 C.2       2 UNK         0.5004 
     61 O         -79.0137   22.9702  -77.8324 O.2       2 UNK        -0.5226 
     62 CA        -79.6739   25.2287  -78.3060 C.3       2 UNK         0.0269 
     63 CB        -80.4471   25.1780  -79.6327 C.3       2 UNK        -0.1926 
     64 N         -80.1403   26.3724  -77.5123 N.am      2 UNK        -0.4687 
     65 C         -79.5709   26.7745  -76.3670 C.2       1 UNK         0.5165 
     66 O         -78.5099   26.3155  -75.9326 O.2       1 UNK        -0.5079 
     67 H67       -80.6140   25.8700  -72.0355 H         1 UNK         0.0900 
     68 H68       -82.3140   26.2408  -71.7679 H         1 UNK         0.0900 
     69 H69       -81.0695   27.3393  -71.1686 H         1 UNK         0.0900 
     70 H70       -79.7546   26.4908  -74.0248 H         1 UNK         0.2959 
     71 H71       -81.3741   27.8241  -75.9335 H         1 UNK         0.1079 
     72 H72       -79.7046   29.5612  -76.6156 H         1 UNK         0.0837 
     73 H73       -80.5209   29.9217  -75.1335 H         1 UNK         0.0837 
     74 H74       -78.5543   31.2489  -73.1703 H         1 UNK         0.0685 
     75 H75       -79.7099   29.9560  -72.9483 H         1 UNK         0.0685 
     76 H76       -78.5409   27.5664  -72.4173 H         1 UNK         0.1434 
     77 H77       -75.6928   27.9111  -69.2448 H         1 UNK         0.1329 
     78 H78       -76.9081   31.4005  -71.4291 H         1 UNK         0.1335 
     79 H79       -75.4909   31.6494  -69.4778 H         1 UNK         0.0680 
     80 H80       -75.4157   30.3301  -68.3389 H         1 UNK         0.0680 
     81 H81       -72.1669   31.7532  -71.0970 H         1 UNK         0.1032 
     82 H82       -73.7692   32.3911  -70.9236 H         1 UNK         0.1032 
     83 H83       -74.6452   30.9106  -72.6570 H         1 UNK         0.0461 
     84 H84       -72.3158   32.5388  -75.4020 H         1 UNK         0.3453 
     85 H85       -72.1259   30.8832  -74.8814 H         1 UNK         0.3453 
     86 H86       -73.7646   29.0559  -73.3896 H         1 UNK         0.2984 
     87 H87       -70.5012   27.6597  -73.5465 H         1 UNK         0.0554 
     88 H88       -71.9659   25.6957  -72.9529 H         1 UNK         0.0847 
     89 H89       -73.1681   26.8133  -72.3038 H         1 UNK         0.0847 
     90 H90       -71.5826   26.7086  -71.5702 H         1 UNK         0.0847 
     91 H91       -72.7701   26.8527  -74.9602 H         1 UNK         0.3141 
     92 H92       -72.0730   28.7944  -77.9320 H         1 UNK         0.0743 
     93 H93       -71.8695   25.8487  -77.1062 H         1 UNK         0.0784 
     94 H94       -71.9945   26.4574  -78.7537 H         1 UNK         0.0784 
     95 H95       -70.5714   26.8203  -77.7893 H         1 UNK         0.0784 
     96 H96       -74.1019   26.9556  -76.7279 H         1 UNK         0.3213 
     97 H97       -76.6158   28.5055  -76.9996 H         1 UNK         0.0855 
     98 H98       -76.9496   29.5730  -79.1961 H         1 UNK         0.0814 
     99 H99       -77.9399   28.1275  -79.0937 H         1 UNK         0.0814 
    100 H100      -76.4463   28.1116  -80.0323 H         1 UNK         0.0814 
    101 H101      -76.7708   26.3198  -76.8369 H         1 UNK         0.3105 
    102 H102      -76.5796   23.7051  -78.2779 H         1 UNK         0.0547 
    103 H103      -74.3528   23.2874  -79.2360 H         1 UNK         0.0837 
    104 H104      -73.5642   23.8586  -77.7735 H         1 UNK         0.0837 
    105 H105      -74.5184   22.3759  -77.7469 H         1 UNK         0.0837 
    106 H106      -76.7665   23.5861  -76.0638 H         1 UNK         0.3020 
    107 H107      -74.7188   23.8654  -73.5080 H         1 UNK         0.1245 
    108 H108      -76.8514   26.0352  -73.3140 H         1 UNK         0.0781 
    109 H109      -75.1563   26.4244  -73.3177 H         1 UNK         0.0781 
    110 H110      -77.2498   25.8456  -69.5370 H         1 UNK         0.0836 
    111 H111      -78.0846   25.6436  -71.0583 H         1 UNK         0.0836 
    112 H112      -77.6729   23.8446  -73.7754 H         1 UNK         0.3022 
    113 H113      -77.7299   20.2774  -73.5968 H         1 UNK         0.0747 
    114 H114      -79.3112   20.9044  -71.7963 H         1 UNK         0.0793 
    115 H115      -77.6540   21.2213  -71.3089 H         1 UNK         0.0793 
    116 H116      -78.6904   22.5537  -71.7862 H         1 UNK         0.0793 
    117 H117      -79.2978   20.8281  -75.0033 H         1 UNK         0.3047 
    118 H118      -80.7965   21.7544  -76.2100 H         1 UNK         0.0822 
    119 H119      -83.0397   22.7113  -75.6923 H         1 UNK         0.0807 
    120 H120      -82.3461   23.6997  -74.4061 H         1 UNK         0.0807 
    121 H121      -82.3570   21.9475  -74.2660 H         1 UNK         0.0807 
    122 H122      -81.3075   24.6075  -76.4338 H         1 UNK         0.2946 
    123 H123      -78.6196   25.3830  -78.5354 H         1 UNK         0.1144 
    124 H124      -80.1016   24.3499  -80.2534 H         1 UNK         0.0793 
    125 H125      -80.3059   26.0926  -80.2092 H         1 UNK         0.0793 
    126 H126      -81.5174   25.0412  -79.4732 H         1 UNK         0.0793 
    127 H127      -81.0043   26.8028  -77.8111 H         1 UNK         0.2896 
@<TRIPOS>BOND
     1    1    2 1    
     2    1   67 1    
     3    1   68 1    
     4    1   69 1    
     5    2    3 2    
     6    2    4 am   BACKBONE|DICT|INTERRES
     7    4    5 1    
     8    4   70 1    
     9    5    6 1    
    10    5   65 1    
    11    5   71 1    
    12    6    7 1    
    13    6   72 1    
    14    6   73 1    
    15    7    8 1    
    16    8    9 1    
    17    8   74 1    
    18    8   75 1    
    19    9   10 ar   
    20    9   14 ar   
    21   10   11 ar   
    22   10   76 1    
    23   11   12 ar   
    24   11   48 1    
    25   12   13 ar   
    26   12   77 1    
    27   13   14 ar   
    28   13   15 1    
    29   14   78 1    
    30   15   16 1    
    31   15   79 1    
    32   15   80 1    
    33   16   17 1    
    34   17   18 1    
    35   17   81 1    
    36   17   82 1    
    37   18   19 1    
    38   18   22 1    
    39   18   83 1    
    40   19   20 am   BACKBONE|DICT|INTERRES
    41   19   21 2    
    42   20   84 1    
    43   20   85 1    
    44   22   23 am   BACKBONE|DICT|INTERRES
    45   22   86 1    
    46   23   24 2    
    47   23   25 1    
    48   25   26 1    
    49   25   27 1    
    50   25   87 1    
    51   26   88 1    
    52   26   89 1    
    53   26   90 1    
    54   27   28 am   BACKBONE|DICT|INTERRES
    55   27   91 1    
    56   28   29 2    
    57   28   30 1    
    58   30   31 1    
    59   30   32 1    
    60   30   92 1    
    61   31   93 1    
    62   31   94 1    
    63   31   95 1    
    64   32   33 am   BACKBONE|DICT|INTERRES
    65   32   96 1    
    66   33   34 2    
    67   33   35 1    
    68   35   36 1    
    69   35   37 1    
    70   35   97 1    
    71   36   98 1    
    72   36   99 1    
    73   36  100 1    
    74   37   38 am   BACKBONE|DICT|INTERRES
    75   37  101 1    
    76   38   39 2    
    77   38   40 1    
    78   40   41 1    
    79   40   42 1    
    80   40  102 1    
    81   41  103 1    
    82   41  104 1    
    83   41  105 1    
    84   42   43 am   BACKBONE|DICT|INTERRES
    85   42  106 1    
    86   43   44 2    
    87   43   45 1    
    88   45   46 1    
    89   45   49 1    
    90   45  107 1    
    91   46   47 1    
    92   46  108 1    
    93   46  109 1    
    94   47   48 1    
    95   48  110 1    
    96   48  111 1    
    97   49   50 am   BACKBONE|DICT|INTERRES
    98   49  112 1    
    99   50   51 2    
   100   50   52 1    
   101   52   53 1    
   102   52   54 1    
   103   52  113 1    
   104   53  114 1    
   105   53  115 1    
   106   53  116 1    
   107   54   55 am   BACKBONE|DICT|INTERRES
   108   54  117 1    
   109   55   56 2    
   110   55   57 1    
   111   57   58 1    
   112   57   59 1    
   113   57  118 1    
   114   58  119 1    
   115   58  120 1    
   116   58  121 1    
   117   59   60 am   BACKBONE|DICT|INTERRES
   118   59  122 1    
   119   60   61 2    
   120   60   62 1    
   121   62   63 1    
   122   62   64 1    
   123   62  123 1    
   124   63  124 1    
   125   63  125 1    
   126   63  126 1    
   127   64   65 am   BACKBONE|DICT|INTERRES
   128   64  127 1    
   129   65   66 2    
@<TRIPOS>SUBSTRUCTURE
     1 UNK         1 GROUP             0       ****    0 ROOT    
