@<TRIPOS>MOLECULE
3R135
127   129    1
SMALL
USER_CHARGES


@<TRIPOS>ATOM
      1 CA        -78.2552   28.7253  -75.1095 C.3       0 UNK        -0.1998 
      2 C         -79.4060   29.7265  -75.1649 C.2       0 UNK         0.4909 
      3 O         -79.3129   30.7098  -75.8971 O.2       0 UNK        -0.5240 
      4 N         -80.4973   29.5400  -74.4103 N.am      1 UNK        -0.4739 
      5 CA        -80.7910   28.3937  -73.5408 C.3       1 UNK         0.0864 
      6 C6        -81.8780   28.7273  -72.4833 C.3       11 UNK        -0.0881 
      7 S7        -81.5655   30.2668  -71.5500 S.3       11 UNK        -0.2682 
      8 C8        -80.6833   29.6637  -70.0748 C.3       11 UNK         0.0289 
      9 C9        -79.2730   29.1960  -70.4049 C.ar      11 UNK        -0.0687 
     10 C10       -78.9144   27.8549  -70.2337 C.ar      11 UNK        -0.0823 
     11 C11       -77.6222   27.4234  -70.5465 C.ar      11 UNK        -0.0830 
     12 C12       -76.6861   28.3459  -71.0237 C.ar      11 UNK        -0.1021 
     13 C13       -77.0327   29.6866  -71.2065 C.ar      11 UNK        -0.0753 
     14 C14       -78.3260   30.1079  -70.8851 C.ar      11 UNK        -0.0933 
     15 C15       -76.0204   30.6623  -71.7900 C.3       11 UNK         0.0166 
     16 S16       -74.5389   30.8072  -70.7431 S.3       11 UNK        -0.2615 
     17 C17       -73.4757   31.8812  -71.7718 C.3       11 UNK        -0.0865 
     18 CA        -72.3948   31.1270  -72.6007 C.3       10 UNK         0.0862 
     19 C         -71.3678   30.3444  -71.7385 C.2       10 UNK         0.5551 
     20 N         -70.5979   31.0360  -70.9095 N.am      10 UNK        -0.7319 
     21 O         -71.2586   29.1210  -71.8144 O.2       10 UNK        -0.5018 
     22 N         -72.9712   30.2688  -73.6409 N.am      10 UNK        -0.4509 
     23 C         -73.4579   30.6882  -74.8131 C.2       10 UNK         0.4899 
     24 O         -73.5438   31.8767  -75.1264 O.2       10 UNK        -0.4839 
     25 CA        -73.9377   29.5976  -75.7937 C.3       9 UNK         0.0222 
     26 CB        -74.0440   30.1052  -77.2469 C.3       9 UNK        -0.1966 
     27 N         -73.1537   28.3567  -75.7344 N.am      9 UNK        -0.4218 
     28 C         -71.8387   28.1996  -75.9612 C.2       9 UNK         0.5020 
     29 O         -71.0709   29.1153  -76.2582 O.2       9 UNK        -0.5274 
     30 CA        -71.2884   26.7699  -75.8418 C.3       8 UNK         0.0270 
     31 CB        -71.1431   26.3688  -74.3638 C.3       8 UNK        -0.1976 
     32 N         -72.1676   25.8174  -76.5223 N.am      8 UNK        -0.4313 
     33 C         -71.9327   25.2694  -77.7230 C.2       8 UNK         0.5041 
     34 O         -70.8877   25.4239  -78.3567 O.2       8 UNK        -0.5577 
     35 CA        -73.0579   24.4091  -78.3347 C.3       7 UNK         0.0284 
     36 CB        -72.8741   22.9307  -77.9565 C.3       7 UNK        -0.1958 
     37 N         -74.3965   24.8461  -77.9312 N.am      7 UNK        -0.4454 
     38 C         -74.9446   26.0254  -78.2560 C.2       7 UNK         0.5089 
     39 O         -74.4458   26.8074  -79.0649 O.2       7 UNK        -0.5125 
     40 CA        -76.2449   26.4279  -77.5336 C.3       6 UNK         0.0408 
     41 CB        -77.4460   26.3265  -78.4862 C.3       6 UNK        -0.1791 
     42 N         -76.5416   25.6734  -76.3101 N.am      6 UNK        -0.4762 
     43 C         -75.7735   25.5941  -75.2131 C.2       6 UNK         0.5007 
     44 O         -74.6635   26.1165  -75.1140 O.2       6 UNK        -0.5032 
     45 CA        -76.3394   24.7874  -74.0331 C.3       5 UNK         0.0783 
     46 C46       -77.2814   25.6949  -73.2134 C.3       11 UNK        -0.0857 
     47 S47       -77.9480   24.9157  -71.7067 S.3       11 UNK        -0.2512 
     48 C48       -77.2362   25.9579  -70.3902 C.3       11 UNK         0.0225 
     49 N         -76.9941   23.5634  -74.5000 N.am      5 UNK        -0.4615 
     50 C         -76.3500   22.4930  -74.9846 C.2       4 UNK         0.5053 
     51 O         -75.1240   22.4027  -75.0429 O.2       4 UNK        -0.5105 
     52 CA        -77.2183   21.3354  -75.5083 C.3       4 UNK         0.0263 
     53 CB        -77.5580   20.3617  -74.3686 C.3       4 UNK        -0.1981 
     54 N         -78.4573   21.7998  -76.1372 N.am      4 UNK        -0.4224 
     55 C         -78.5178   22.4454  -77.3115 C.2       3 UNK         0.4895 
     56 O         -77.5441   22.6373  -78.0398 O.2       3 UNK        -0.5091 
     57 CA        -79.8927   23.0082  -77.7226 C.3       3 UNK         0.0250 
     58 CB        -80.6775   21.9708  -78.5412 C.3       3 UNK        -0.1996 
     59 N         -80.7101   23.4603  -76.5875 N.am      3 UNK        -0.4254 
     60 C         -80.3506   24.4337  -75.7392 C.2       2 UNK         0.5004 
     61 O         -79.2886   25.0514  -75.8336 O.2       2 UNK        -0.5226 
     62 CA        -81.2936   24.7039  -74.5530 C.3       2 UNK         0.0269 
     63 CB        -81.2022   23.5613  -73.5265 C.3       2 UNK        -0.1926 
     64 N         -80.9820   25.9664  -73.8734 N.am      2 UNK        -0.4687 
     65 C         -81.2367   27.1787  -74.3826 C.2       1 UNK         0.5165 
     66 O         -81.8322   27.3563  -75.4489 O.2       1 UNK        -0.5079 
     67 H67       -77.8730   28.6245  -74.0944 H         1 UNK         0.0900 
     68 H68       -78.5712   27.7495  -75.4761 H         1 UNK         0.0900 
     69 H69       -77.4315   29.0606  -75.7388 H         1 UNK         0.0900 
     70 H70       -81.2407   30.2203  -74.4700 H         1 UNK         0.2959 
     71 H71       -79.8782   28.1234  -73.0078 H         1 UNK         0.1079 
     72 H72       -81.9914   27.9020  -71.7776 H         1 UNK         0.0837 
     73 H73       -82.8516   28.8423  -72.9647 H         1 UNK         0.0837 
     74 H74       -81.2643   28.8704  -69.6019 H         1 UNK         0.0685 
     75 H75       -80.6234   30.4742  -69.3472 H         1 UNK         0.0685 
     76 H76       -79.6409   27.1420  -69.8679 H         1 UNK         0.1434 
     77 H77       -75.6854   28.0193  -71.2727 H         1 UNK         0.1329 
     78 H78       -78.6075   31.1425  -71.0265 H         1 UNK         0.1335 
     79 H79       -76.4632   31.6511  -71.9197 H         1 UNK         0.0680 
     80 H80       -75.7336   30.3156  -72.7831 H         1 UNK         0.0680 
     81 H81       -72.9966   32.6040  -71.1098 H         1 UNK         0.1032 
     82 H82       -74.1006   32.4809  -72.4351 H         1 UNK         0.1032 
     83 H83       -71.8000   31.8805  -73.1214 H         1 UNK         0.0461 
     84 H84       -69.9265   30.5428  -70.3418 H         1 UNK         0.3453 
     85 H85       -70.6696   32.0390  -70.8403 H         1 UNK         0.3453 
     86 H86       -72.8851   29.2781  -73.4575 H         1 UNK         0.2984 
     87 H87       -74.9429   29.3277  -75.4679 H         1 UNK         0.0554 
     88 H88       -74.7375   30.9438  -77.3208 H         1 UNK         0.0847 
     89 H89       -74.4097   29.3265  -77.9154 H         1 UNK         0.0847 
     90 H90       -73.0801   30.4455  -77.6264 H         1 UNK         0.0847 
     91 H91       -73.6867   27.5295  -75.4678 H         1 UNK         0.3141 
     92 H92       -70.2940   26.7556  -76.2932 H         1 UNK         0.0743 
     93 H93       -70.5027   27.0724  -73.8297 H         1 UNK         0.0784 
     94 H94       -72.1040   26.3475  -73.8481 H         1 UNK         0.0784 
     95 H95       -70.6912   25.3816  -74.2666 H         1 UNK         0.0784 
     96 H96       -73.0726   25.6578  -76.0900 H         1 UNK         0.3213 
     97 H97       -72.9885   24.4983  -79.4210 H         1 UNK         0.0855 
     98 H98       -72.9468   22.7771  -76.8789 H         1 UNK         0.0814 
     99 H99       -71.8958   22.5662  -78.2729 H         1 UNK         0.0814 
    100 H100      -73.6245   22.3016  -78.4359 H         1 UNK         0.0814 
    101 H101      -74.8974   24.2565  -77.2811 H         1 UNK         0.3105 
    102 H102      -76.1319   27.4737  -77.2429 H         1 UNK         0.0547 
    103 H103      -78.3617   26.6817  -78.0129 H         1 UNK         0.0837 
    104 H104      -77.6128   25.2996  -78.8119 H         1 UNK         0.0837 
    105 H105      -77.2888   26.9307  -79.3806 H         1 UNK         0.0837 
    106 H106      -77.4688   25.2549  -76.2607 H         1 UNK         0.3020 
    107 H107      -75.4965   24.5031  -73.3987 H         1 UNK         0.1245 
    108 H108      -78.1305   26.0204  -73.8112 H         1 UNK         0.0781 
    109 H109      -76.7484   26.6058  -72.9510 H         1 UNK         0.0781 
    110 H110      -76.1513   25.8410  -70.3896 H         1 UNK         0.0836 
    111 H111      -77.5817   25.5921  -69.4222 H         1 UNK         0.0836 
    112 H112      -78.0024   23.5844  -74.5263 H         1 UNK         0.3022 
    113 H113      -76.6353   20.7959  -76.2582 H         1 UNK         0.0747 
    114 H114      -78.1147   19.4993  -74.7359 H         1 UNK         0.0793 
    115 H115      -76.6500   19.9821  -73.8977 H         1 UNK         0.0793 
    116 H116      -78.1531   20.8401  -73.5894 H         1 UNK         0.0793 
    117 H117      -79.3130   21.6673  -75.6188 H         1 UNK         0.3047 
    118 H118      -79.7092   23.8763  -78.3593 H         1 UNK         0.0822 
    119 H119      -81.6094   22.3884  -78.9228 H         1 UNK         0.0807 
    120 H120      -80.9214   21.0873  -77.9498 H         1 UNK         0.0807 
    121 H121      -80.0987   21.6359  -79.4034 H         1 UNK         0.0807 
    122 H122      -81.5928   22.9888  -76.4486 H         1 UNK         0.2946 
    123 H123      -82.3156   24.7587  -74.9357 H         1 UNK         0.1144 
    124 H124      -80.1885   23.4387  -73.1438 H         1 UNK         0.0793 
    125 H125      -81.5022   22.6084  -73.9640 H         1 UNK         0.0793 
    126 H126      -81.8597   23.7403  -72.6755 H         1 UNK         0.0793 
    127 H127      -80.4812   25.8899  -72.9998 H         1 UNK         0.2896 
@<TRIPOS>BOND
     1    1    2 1    
     2    1   67 1    
     3    1   68 1    
     4    1   69 1    
     5    2    3 2    
     6    2    4 am   BACKBONE|DICT|INTERRES
     7    4    5 1    
     8    4   70 1    
     9    5    6 1    
    10    5   65 1    
    11    5   71 1    
    12    6    7 1    
    13    6   72 1    
    14    6   73 1    
    15    7    8 1    
    16    8    9 1    
    17    8   74 1    
    18    8   75 1    
    19    9   10 ar   
    20    9   14 ar   
    21   10   11 ar   
    22   10   76 1    
    23   11   12 ar   
    24   11   48 1    
    25   12   13 ar   
    26   12   77 1    
    27   13   14 ar   
    28   13   15 1    
    29   14   78 1    
    30   15   16 1    
    31   15   79 1    
    32   15   80 1    
    33   16   17 1    
    34   17   18 1    
    35   17   81 1    
    36   17   82 1    
    37   18   19 1    
    38   18   22 1    
    39   18   83 1    
    40   19   20 am   BACKBONE|DICT|INTERRES
    41   19   21 2    
    42   20   84 1    
    43   20   85 1    
    44   22   23 am   BACKBONE|DICT|INTERRES
    45   22   86 1    
    46   23   24 2    
    47   23   25 1    
    48   25   26 1    
    49   25   27 1    
    50   25   87 1    
    51   26   88 1    
    52   26   89 1    
    53   26   90 1    
    54   27   28 am   BACKBONE|DICT|INTERRES
    55   27   91 1    
    56   28   29 2    
    57   28   30 1    
    58   30   31 1    
    59   30   32 1    
    60   30   92 1    
    61   31   93 1    
    62   31   94 1    
    63   31   95 1    
    64   32   33 am   BACKBONE|DICT|INTERRES
    65   32   96 1    
    66   33   34 2    
    67   33   35 1    
    68   35   36 1    
    69   35   37 1    
    70   35   97 1    
    71   36   98 1    
    72   36   99 1    
    73   36  100 1    
    74   37   38 am   BACKBONE|DICT|INTERRES
    75   37  101 1    
    76   38   39 2    
    77   38   40 1    
    78   40   41 1    
    79   40   42 1    
    80   40  102 1    
    81   41  103 1    
    82   41  104 1    
    83   41  105 1    
    84   42   43 am   BACKBONE|DICT|INTERRES
    85   42  106 1    
    86   43   44 2    
    87   43   45 1    
    88   45   46 1    
    89   45   49 1    
    90   45  107 1    
    91   46   47 1    
    92   46  108 1    
    93   46  109 1    
    94   47   48 1    
    95   48  110 1    
    96   48  111 1    
    97   49   50 am   BACKBONE|DICT|INTERRES
    98   49  112 1    
    99   50   51 2    
   100   50   52 1    
   101   52   53 1    
   102   52   54 1    
   103   52  113 1    
   104   53  114 1    
   105   53  115 1    
   106   53  116 1    
   107   54   55 am   BACKBONE|DICT|INTERRES
   108   54  117 1    
   109   55   56 2    
   110   55   57 1    
   111   57   58 1    
   112   57   59 1    
   113   57  118 1    
   114   58  119 1    
   115   58  120 1    
   116   58  121 1    
   117   59   60 am   BACKBONE|DICT|INTERRES
   118   59  122 1    
   119   60   61 2    
   120   60   62 1    
   121   62   63 1    
   122   62   64 1    
   123   62  123 1    
   124   63  124 1    
   125   63  125 1    
   126   63  126 1    
   127   64   65 am   BACKBONE|DICT|INTERRES
   128   64  127 1    
   129   65   66 2    
@<TRIPOS>SUBSTRUCTURE
     1 UNK         1 GROUP             0       ****    0 ROOT    
