@<TRIPOS>MOLECULE
3R135
127   129    1
SMALL
USER_CHARGES


@<TRIPOS>ATOM
      1 CA        -79.4394   29.7956  -77.0178 C.3       0 UNK        -0.1998 
      2 C         -79.4026   28.8273  -75.8460 C.2       0 UNK         0.4909 
      3 O         -78.6352   27.8652  -75.8734 O.2       0 UNK        -0.5240 
      4 N         -80.2192   29.0788  -74.8152 N.am      1 UNK        -0.4739 
      5 CA        -80.3326   28.2213  -73.6334 C.3       1 UNK         0.0864 
      6 C6        -80.9938   28.9751  -72.4483 C.3       11 UNK        -0.0881 
      7 S7        -80.5837   28.2433  -70.8243 S.3       11 UNK        -0.2682 
      8 C8        -79.1349   29.2293  -70.3127 C.3       11 UNK         0.0289 
      9 C9        -78.0009   29.1021  -71.3179 C.ar      11 UNK        -0.0687 
     10 C10       -77.3064   27.8951  -71.4386 C.ar      11 UNK        -0.0823 
     11 C11       -76.3556   27.7261  -72.4476 C.ar      11 UNK        -0.0830 
     12 C12       -76.0746   28.7859  -73.3131 C.ar      11 UNK        -0.1021 
     13 C13       -76.7334   30.0130  -73.1794 C.ar      11 UNK        -0.0753 
     14 C14       -77.6971   30.1626  -72.1778 C.ar      11 UNK        -0.0933 
     15 C15       -76.4515   31.1681  -74.1363 C.3       11 UNK         0.0166 
     16 S16       -74.6773   31.4395  -74.4576 S.3       11 UNK        -0.2615 
     17 C17       -74.0918   31.8869  -72.7903 C.3       11 UNK        -0.0865 
     18 CA        -72.5562   32.0817  -72.7320 C.3       10 UNK         0.0862 
     19 C         -72.1425   32.6418  -71.3425 C.2       10 UNK         0.5551 
     20 N         -72.0562   33.9579  -71.2060 N.am      10 UNK        -0.7319 
     21 O         -71.9461   31.8994  -70.3819 O.2       10 UNK        -0.5018 
     22 N         -71.8437   30.8432  -73.0816 N.am      10 UNK        -0.4509 
     23 C         -70.5198   30.7185  -73.2200 C.2       10 UNK         0.4899 
     24 O         -69.7350   31.6664  -73.1692 O.2       10 UNK        -0.4839 
     25 CA        -69.9576   29.3039  -73.4567 C.3       9 UNK         0.0222 
     26 CB        -69.8848   28.5135  -72.1349 C.3       9 UNK        -0.1966 
     27 N         -70.6220   28.5253  -74.5135 N.am      9 UNK        -0.4218 
     28 C         -71.8730   28.0459  -74.5480 C.2       9 UNK         0.5020 
     29 O         -72.7121   28.2241  -73.6625 O.2       9 UNK        -0.5274 
     30 CA        -72.2246   27.1678  -75.7591 C.3       8 UNK         0.0270 
     31 CB        -72.0547   25.6827  -75.4040 C.3       8 UNK        -0.1976 
     32 N         -73.5949   27.4076  -76.2126 N.am      8 UNK        -0.4313 
     33 C         -73.9809   28.4939  -76.8942 C.2       8 UNK         0.5041 
     34 O         -73.1941   29.3612  -77.2802 O.2       8 UNK        -0.5577 
     35 CA        -75.4882   28.6469  -77.1883 C.3       7 UNK         0.0284 
     36 CB        -75.7615   29.4970  -78.4479 C.3       7 UNK        -0.1958 
     37 N         -76.2329   27.3814  -77.2386 N.am      7 UNK        -0.4454 
     38 C         -76.0762   26.3814  -78.1160 C.2       7 UNK         0.5089 
     39 O         -75.2230   26.3705  -79.0057 O.2       7 UNK        -0.5125 
     40 CA        -77.0459   25.1934  -77.9545 C.3       6 UNK         0.0408 
     41 CB        -77.0071   24.2281  -79.1569 C.3       6 UNK        -0.1791 
     42 N         -76.8502   24.4460  -76.7062 N.am      6 UNK        -0.4762 
     43 C         -75.7142   23.8880  -76.2534 C.2       6 UNK         0.5007 
     44 O         -74.6256   23.9940  -76.8165 O.2       6 UNK        -0.5032 
     45 CA        -75.8049   23.0106  -74.9897 C.3       5 UNK         0.0783 
     46 C46       -75.5990   23.7877  -73.6632 C.3       11 UNK        -0.0857 
     47 S47       -76.7673   25.1556  -73.3531 S.3       11 UNK        -0.2512 
     48 C48       -75.6511   26.3915  -72.6194 C.3       11 UNK         0.0225 
     49 N         -77.0312   22.2044  -74.9961 N.am      5 UNK        -0.4615 
     50 C         -77.0511   20.8780  -75.2040 C.2       4 UNK         0.5053 
     51 O         -76.0381   20.1973  -75.3697 O.2       4 UNK        -0.5105 
     52 CA        -78.4157   20.1641  -75.2240 C.3       4 UNK         0.0263 
     53 CB        -78.7329   19.5823  -73.8367 C.3       4 UNK        -0.1981 
     54 N         -79.5209   21.0217  -75.6447 N.am      4 UNK        -0.4224 
     55 C         -79.6963   21.5153  -76.8787 C.2       3 UNK         0.4895 
     56 O         -78.9957   21.2131  -77.8446 O.2       3 UNK        -0.5091 
     57 CA        -80.8371   22.5373  -77.0613 C.3       3 UNK         0.0250 
     58 CB        -82.0505   21.8755  -77.7341 C.3       3 UNK        -0.1996 
     59 N         -81.2684   23.1831  -75.8125 N.am      3 UNK        -0.4254 
     60 C         -80.4824   23.9533  -75.0482 C.2       2 UNK         0.5004 
     61 O         -79.3026   24.1924  -75.3139 O.2       2 UNK        -0.5226 
     62 CA        -81.0762   24.4529  -73.7244 C.3       2 UNK         0.0269 
     63 CB        -80.6766   23.5098  -72.5774 C.3       2 UNK        -0.1926 
     64 N         -80.5841   25.7944  -73.4236 N.am      2 UNK        -0.4687 
     65 C         -81.0668   26.9115  -73.9785 C.2       1 UNK         0.5165 
     66 O         -82.0563   26.9385  -74.7164 O.2       1 UNK        -0.5079 
     67 H67       -78.5295   30.3940  -77.0372 H         1 UNK         0.0900 
     68 H68       -80.2915   30.4724  -76.9591 H         1 UNK         0.0900 
     69 H69       -79.5081   29.2464  -77.9565 H         1 UNK         0.0900 
     70 H70       -80.8568   29.8603  -74.8596 H         1 UNK         0.2959 
     71 H71       -79.3125   27.9535  -73.3558 H         1 UNK         0.1079 
     72 H72       -82.0795   29.0071  -72.5597 H         1 UNK         0.0837 
     73 H73       -80.6723   30.0177  -72.4362 H         1 UNK         0.0837 
     74 H74       -78.7951   28.8848  -69.3350 H         1 UNK         0.0685 
     75 H75       -79.4321   30.2717  -70.1870 H         1 UNK         0.0685 
     76 H76       -77.5458   27.0691  -70.7826 H         1 UNK         0.1434 
     77 H77       -75.3373   28.6547  -74.0914 H         1 UNK         0.1329 
     78 H78       -78.2378   31.0948  -72.0892 H         1 UNK         0.1335 
     79 H79       -76.9541   30.9674  -75.0825 H         1 UNK         0.0680 
     80 H80       -76.8777   32.0971  -73.7544 H         1 UNK         0.0680 
     81 H81       -74.4002   31.1146  -72.0826 H         1 UNK         0.1032 
     82 H82       -74.6077   32.8013  -72.4906 H         1 UNK         0.1032 
     83 H83       -72.2815   32.8233  -73.4849 H         1 UNK         0.0461 
     84 H84       -72.2245   34.5751  -71.9855 H         1 UNK         0.3453 
     85 H85       -71.8052   34.3425  -70.3085 H         1 UNK         0.3453 
     86 H86       -72.4048   29.9985  -73.1595 H         1 UNK         0.2984 
     87 H87       -68.9318   29.4361  -73.8046 H         1 UNK         0.0554 
     88 H88       -69.4003   27.5474  -72.2756 H         1 UNK         0.0847 
     89 H89       -70.8729   28.3343  -71.7099 H         1 UNK         0.0847 
     90 H90       -69.3080   29.0597  -71.3872 H         1 UNK         0.0847 
     91 H91       -70.0370   28.3321  -75.3152 H         1 UNK         0.3141 
     92 H92       -71.5443   27.4034  -76.5805 H         1 UNK         0.0743 
     93 H93       -72.7410   25.3750  -74.6151 H         1 UNK         0.0784 
     94 H94       -72.2288   25.0465  -76.2717 H         1 UNK         0.0784 
     95 H95       -71.0425   25.4765  -75.0533 H         1 UNK         0.0784 
     96 H96       -74.2955   26.7328  -75.9440 H         1 UNK         0.3213 
     97 H97       -75.9017   29.1913  -76.3403 H         1 UNK         0.0855 
     98 H98       -75.3736   30.5092  -78.3263 H         1 UNK         0.0814 
     99 H99       -76.8284   29.5820  -78.6506 H         1 UNK         0.0814 
    100 H100      -75.2859   29.0718  -79.3322 H         1 UNK         0.0814 
    101 H101      -77.0118   27.3171  -76.5820 H         1 UNK         0.3105 
    102 H102      -78.0517   25.6138  -77.9035 H         1 UNK         0.0547 
    103 H103      -77.2142   24.7563  -80.0883 H         1 UNK         0.0837 
    104 H104      -76.0321   23.7512  -79.2627 H         1 UNK         0.0837 
    105 H105      -77.7548   23.4414  -79.0571 H         1 UNK         0.0837 
    106 H106      -77.6885   24.3545  -76.1324 H         1 UNK         0.3020 
    107 H107      -74.9448   22.3407  -75.0621 H         1 UNK         0.1245 
    108 H108      -75.6667   23.0956  -72.8225 H         1 UNK         0.0781 
    109 H109      -74.5798   24.1747  -73.6329 H         1 UNK         0.0781 
    110 H110      -75.2939   26.0339  -71.6527 H         1 UNK         0.0836 
    111 H111      -74.7701   26.5099  -73.2517 H         1 UNK         0.0836 
    112 H112      -77.9021   22.7159  -74.9091 H         1 UNK         0.3022 
    113 H113      -78.3434   19.3375  -75.9343 H         1 UNK         0.0747 
    114 H114      -79.6576   19.0050  -73.8493 H         1 UNK         0.0793 
    115 H115      -77.9394   18.9112  -73.5046 H         1 UNK         0.0793 
    116 H116      -78.8338   20.3647  -73.0832 H         1 UNK         0.0793 
    117 H117      -80.1647   21.3148  -74.9256 H         1 UNK         0.3047 
    118 H118      -80.4603   23.3196  -77.7240 H         1 UNK         0.0822 
    119 H119      -82.8300   22.6051  -77.9548 H         1 UNK         0.0807 
    120 H120      -82.4854   21.0960  -77.1072 H         1 UNK         0.0807 
    121 H121      -81.7677   21.4120  -78.6805 H         1 UNK         0.0807 
    122 H122      -82.2218   23.0142  -75.5238 H         1 UNK         0.2946 
    123 H123      -82.1659   24.4785  -73.8009 H         1 UNK         0.1144 
    124 H124      -81.0810   23.8523  -71.6247 H         1 UNK         0.0793 
    125 H125      -79.5927   23.4366  -72.4731 H         1 UNK         0.0793 
    126 H126      -81.0580   22.5019  -72.7454 H         1 UNK         0.0793 
    127 H127      -79.7386   25.8487  -72.8733 H         1 UNK         0.2896 
@<TRIPOS>BOND
     1    1    2 1    
     2    1   67 1    
     3    1   68 1    
     4    1   69 1    
     5    2    3 2    
     6    2    4 am   BACKBONE|DICT|INTERRES
     7    4    5 1    
     8    4   70 1    
     9    5    6 1    
    10    5   65 1    
    11    5   71 1    
    12    6    7 1    
    13    6   72 1    
    14    6   73 1    
    15    7    8 1    
    16    8    9 1    
    17    8   74 1    
    18    8   75 1    
    19    9   10 ar   
    20    9   14 ar   
    21   10   11 ar   
    22   10   76 1    
    23   11   12 ar   
    24   11   48 1    
    25   12   13 ar   
    26   12   77 1    
    27   13   14 ar   
    28   13   15 1    
    29   14   78 1    
    30   15   16 1    
    31   15   79 1    
    32   15   80 1    
    33   16   17 1    
    34   17   18 1    
    35   17   81 1    
    36   17   82 1    
    37   18   19 1    
    38   18   22 1    
    39   18   83 1    
    40   19   20 am   BACKBONE|DICT|INTERRES
    41   19   21 2    
    42   20   84 1    
    43   20   85 1    
    44   22   23 am   BACKBONE|DICT|INTERRES
    45   22   86 1    
    46   23   24 2    
    47   23   25 1    
    48   25   26 1    
    49   25   27 1    
    50   25   87 1    
    51   26   88 1    
    52   26   89 1    
    53   26   90 1    
    54   27   28 am   BACKBONE|DICT|INTERRES
    55   27   91 1    
    56   28   29 2    
    57   28   30 1    
    58   30   31 1    
    59   30   32 1    
    60   30   92 1    
    61   31   93 1    
    62   31   94 1    
    63   31   95 1    
    64   32   33 am   BACKBONE|DICT|INTERRES
    65   32   96 1    
    66   33   34 2    
    67   33   35 1    
    68   35   36 1    
    69   35   37 1    
    70   35   97 1    
    71   36   98 1    
    72   36   99 1    
    73   36  100 1    
    74   37   38 am   BACKBONE|DICT|INTERRES
    75   37  101 1    
    76   38   39 2    
    77   38   40 1    
    78   40   41 1    
    79   40   42 1    
    80   40  102 1    
    81   41  103 1    
    82   41  104 1    
    83   41  105 1    
    84   42   43 am   BACKBONE|DICT|INTERRES
    85   42  106 1    
    86   43   44 2    
    87   43   45 1    
    88   45   46 1    
    89   45   49 1    
    90   45  107 1    
    91   46   47 1    
    92   46  108 1    
    93   46  109 1    
    94   47   48 1    
    95   48  110 1    
    96   48  111 1    
    97   49   50 am   BACKBONE|DICT|INTERRES
    98   49  112 1    
    99   50   51 2    
   100   50   52 1    
   101   52   53 1    
   102   52   54 1    
   103   52  113 1    
   104   53  114 1    
   105   53  115 1    
   106   53  116 1    
   107   54   55 am   BACKBONE|DICT|INTERRES
   108   54  117 1    
   109   55   56 2    
   110   55   57 1    
   111   57   58 1    
   112   57   59 1    
   113   57  118 1    
   114   58  119 1    
   115   58  120 1    
   116   58  121 1    
   117   59   60 am   BACKBONE|DICT|INTERRES
   118   59  122 1    
   119   60   61 2    
   120   60   62 1    
   121   62   63 1    
   122   62   64 1    
   123   62  123 1    
   124   63  124 1    
   125   63  125 1    
   126   63  126 1    
   127   64   65 am   BACKBONE|DICT|INTERRES
   128   64  127 1    
   129   65   66 2    
@<TRIPOS>SUBSTRUCTURE
     1 UNK         1 GROUP             0       ****    0 ROOT    
