@<TRIPOS>MOLECULE
3R135
127   129    1
SMALL
USER_CHARGES


@<TRIPOS>ATOM
      1 CA        -82.5129   27.3929  -70.3883 C.3       0 UNK        -0.1998 
      2 C         -82.8835   27.4782  -71.8614 C.2       0 UNK         0.4909 
      3 O         -84.0320   27.2198  -72.2213 O.2       0 UNK        -0.5240 
      4 N         -81.9166   27.8429  -72.7137 N.am      1 UNK        -0.4739 
      5 CA        -82.0794   28.0126  -74.1656 C.3       1 UNK         0.0864 
      6 C6        -80.8337   28.6632  -74.8223 C.3       11 UNK        -0.0881 
      7 S7        -80.2853   30.2127  -74.0274 S.3       11 UNK        -0.2682 
      8 C8        -78.4706   30.0682  -74.1809 C.3       11 UNK         0.0289 
      9 C9        -77.7958   29.4761  -72.9448 C.ar      11 UNK        -0.0687 
     10 C10       -78.2541   28.2892  -72.3602 C.ar      11 UNK        -0.0823 
     11 C11       -77.6457   27.7771  -71.2111 C.ar      11 UNK        -0.0830 
     12 C12       -76.5357   28.4320  -70.6723 C.ar      11 UNK        -0.1021 
     13 C13       -76.0482   29.6031  -71.2579 C.ar      11 UNK        -0.0753 
     14 C14       -76.6886   30.1250  -72.3862 C.ar      11 UNK        -0.0933 
     15 C15       -74.8467   30.3125  -70.6516 C.3       11 UNK         0.0166 
     16 S16       -73.3399   30.0419  -71.6364 S.3       11 UNK        -0.2615 
     17 C17       -73.1271   31.6941  -72.3881 C.3       11 UNK        -0.0865 
     18 CA        -71.9578   31.7807  -73.4024 C.3       10 UNK         0.0862 
     19 C         -70.5621   31.6633  -72.7171 C.2       10 UNK         0.5551 
     20 N         -69.7288   30.6829  -73.0481 N.am      10 UNK        -0.7319 
     21 O         -70.2243   32.4931  -71.8761 O.2       10 UNK        -0.5018 
     22 N         -72.1711   30.8764  -74.5400 N.am      10 UNK        -0.4509 
     23 C         -71.5976   31.0090  -75.7422 C.2       10 UNK         0.4899 
     24 O         -70.9131   31.9806  -76.0673 O.2       10 UNK        -0.4839 
     25 CA        -71.8277   29.8611  -76.7463 C.3       9 UNK         0.0222 
     26 CB        -70.7176   29.7788  -77.8151 C.3       9 UNK        -0.1966 
     27 N         -72.0292   28.5473  -76.1192 N.am      9 UNK        -0.4218 
     28 C         -71.1867   27.8956  -75.2979 C.2       9 UNK         0.5020 
     29 O         -70.1228   28.3698  -74.8960 O.2       9 UNK        -0.5274 
     30 CA        -71.5960   26.4883  -74.8178 C.3       8 UNK         0.0270 
     31 CB        -72.0696   26.5473  -73.3562 C.3       8 UNK        -0.1976 
     32 N         -72.6364   25.8653  -75.6434 N.am      8 UNK        -0.4313 
     33 C         -72.4562   25.4578  -76.9109 C.2       8 UNK         0.5041 
     34 O         -71.3546   25.4354  -77.4615 O.2       8 UNK        -0.5577 
     35 CA        -73.6969   25.0369  -77.7278 C.3       7 UNK         0.0284 
     36 CB        -73.7484   23.5072  -77.8715 C.3       7 UNK        -0.1958 
     37 N         -74.9801   25.5098  -77.1982 N.am      7 UNK        -0.4454 
     38 C         -75.3179   26.7844  -76.9537 C.2       7 UNK         0.5089 
     39 O         -74.5988   27.7477  -77.2192 O.2       7 UNK        -0.5125 
     40 CA        -76.6480   27.0199  -76.2168 C.3       6 UNK         0.0408 
     41 CB        -77.7758   27.2686  -77.2294 C.3       6 UNK        -0.1791 
     42 N         -77.0300   25.9251  -75.3164 N.am      6 UNK        -0.4762 
     43 C         -76.2923   25.4504  -74.2984 C.2       6 UNK         0.5007 
     44 O         -75.1825   25.8897  -73.9981 O.2       6 UNK        -0.5032 
     45 CA        -76.8511   24.2228  -73.5568 C.3       5 UNK         0.0783 
     46 C46       -77.9592   24.5921  -72.5411 C.3       11 UNK        -0.0857 
     47 S47       -77.2701   25.0420  -70.9163 S.3       11 UNK        -0.2512 
     48 C48       -78.2084   26.5456  -70.5171 C.3       11 UNK         0.0225 
     49 N         -77.3258   23.2351  -74.5253 N.am      5 UNK        -0.4615 
     50 C         -76.5600   22.2919  -75.0883 C.2       4 UNK         0.5053 
     51 O         -75.3798   22.1051  -74.7945 O.2       4 UNK        -0.5105 
     52 CA        -77.2130   21.4001  -76.1607 C.3       4 UNK         0.0263 
     53 CB        -77.6393   20.0551  -75.5506 C.3       4 UNK        -0.1981 
     54 N         -78.3699   22.0189  -76.8139 N.am      4 UNK        -0.4224 
     55 C         -78.3038   23.0739  -77.6376 C.2       3 UNK         0.4895 
     56 O         -77.2532   23.6282  -77.9601 O.2       3 UNK        -0.5091 
     57 CA        -79.6448   23.6374  -78.1404 C.3       3 UNK         0.0250 
     58 CB        -80.1236   22.8638  -79.3791 C.3       3 UNK        -0.1996 
     59 N         -80.7103   23.6569  -77.1273 N.am      3 UNK        -0.4254 
     60 C         -80.6323   24.2932  -75.9505 C.2       2 UNK         0.5004 
     61 O         -79.6120   24.8530  -75.5413 O.2       2 UNK        -0.5226 
     62 CA        -81.8791   24.2792  -75.0534 C.3       2 UNK         0.0269 
     63 CB        -81.7846   23.1399  -74.0261 C.3       2 UNK        -0.1926 
     64 N         -81.9771   25.5562  -74.3454 N.am      2 UNK        -0.4687 
     65 C         -82.3916   26.6975  -74.9137 C.2       1 UNK         0.5165 
     66 O         -82.9510   26.7453  -76.0106 O.2       1 UNK        -0.5079 
     67 H67       -83.1877   28.0103  -69.7959 H         1 UNK         0.0900 
     68 H68       -82.5974   26.3641  -70.0392 H         1 UNK         0.0900 
     69 H69       -81.4945   27.7337  -70.2023 H         1 UNK         0.0900 
     70 H70       -81.0170   28.1136  -72.3467 H         1 UNK         0.2959 
     71 H71       -82.9330   28.6762  -74.3207 H         1 UNK         0.1079 
     72 H72       -80.0053   27.9531  -74.8328 H         1 UNK         0.0837 
     73 H73       -81.0377   28.8919  -75.8706 H         1 UNK         0.0837 
     74 H74       -78.0813   31.0691  -74.3732 H         1 UNK         0.0685 
     75 H75       -78.2132   29.4766  -75.0590 H         1 UNK         0.0685 
     76 H76       -79.0968   27.7695  -72.7853 H         1 UNK         0.1434 
     77 H77       -76.0569   28.0316  -69.7889 H         1 UNK         0.1329 
     78 H78       -76.3183   31.0379  -72.8312 H         1 UNK         0.1335 
     79 H79       -75.0584   31.3784  -70.5555 H         1 UNK         0.0680 
     80 H80       -74.6643   29.9515  -69.6383 H         1 UNK         0.0680 
     81 H81       -72.9921   32.4286  -71.5915 H         1 UNK         0.1032 
     82 H82       -74.0565   31.9712  -72.8874 H         1 UNK         0.1032 
     83 H83       -71.9842   32.7951  -73.8054 H         1 UNK         0.0461 
     84 H84       -68.8299   30.6300  -72.5970 H         1 UNK         0.3453 
     85 H85       -69.9857   29.9846  -73.7382 H         1 UNK         0.3453 
     86 H86       -72.6999   30.0396  -74.3429 H         1 UNK         0.2984 
     87 H87       -72.7620   30.0937  -77.2591 H         1 UNK         0.0554 
     88 H88       -70.6536   30.7040  -78.3891 H         1 UNK         0.0847 
     89 H89       -70.9090   28.9730  -78.5238 H         1 UNK         0.0847 
     90 H90       -69.7386   29.6052  -77.3668 H         1 UNK         0.0847 
     91 H91       -72.8971   28.0859  -76.3823 H         1 UNK         0.3141 
     92 H92       -70.7065   25.8566  -74.8634 H         1 UNK         0.0743 
     93 H93       -71.2865   26.9413  -72.7068 H         1 UNK         0.0784 
     94 H94       -72.9407   27.1937  -73.2396 H         1 UNK         0.0784 
     95 H95       -72.3345   25.5582  -72.9821 H         1 UNK         0.0784 
     96 H96       -73.5701   25.8363  -75.2430 H         1 UNK         0.3213 
     97 H97       -73.5832   25.4708  -78.7232 H         1 UNK         0.0855 
     98 H98       -73.8827   23.0176  -76.9065 H         1 UNK         0.0814 
     99 H99       -72.8242   23.1233  -78.3056 H         1 UNK         0.0814 
    100 H100      -74.5641   23.1949  -78.5238 H         1 UNK         0.0814 
    101 H101      -75.6809   24.8006  -77.0153 H         1 UNK         0.3105 
    102 H102      -76.5258   27.9129  -75.6018 H         1 UNK         0.0547 
    103 H103      -78.7297   27.4490  -76.7365 H         1 UNK         0.0837 
    104 H104      -77.9039   26.4194  -77.9005 H         1 UNK         0.0837 
    105 H105      -77.5586   28.1411  -77.8468 H         1 UNK         0.0837 
    106 H106      -77.9435   25.5039  -75.4821 H         1 UNK         0.3020 
    107 H107      -76.0187   23.7779  -73.0055 H         1 UNK         0.1245 
    108 H108      -78.6064   23.7314  -72.3649 H         1 UNK         0.0781 
    109 H109      -78.6152   25.3750  -72.9249 H         1 UNK         0.0781 
    110 H110      -78.1756   26.6973  -69.4370 H         1 UNK         0.0836 
    111 H111      -79.2610   26.4012  -70.7648 H         1 UNK         0.0836 
    112 H112      -78.2674   23.3709  -74.8698 H         1 UNK         0.3022 
    113 H113      -76.4578   21.2061  -76.9257 H         1 UNK         0.0747 
    114 H114      -78.0306   19.3796  -76.3116 H         1 UNK         0.0793 
    115 H115      -76.7917   19.5537  -75.0808 H         1 UNK         0.0793 
    116 H116      -78.4066   20.1828  -74.7859 H         1 UNK         0.0793 
    117 H117      -79.2779   21.6308  -76.6029 H         1 UNK         0.3047 
    118 H118      -79.4674   24.6722  -78.4391 H         1 UNK         0.0822 
    119 H119      -81.0101   23.3237  -79.8165 H         1 UNK         0.0807 
    120 H120      -80.3648   21.8268  -79.1423 H         1 UNK         0.0807 
    121 H121      -79.3542   22.8510  -80.1526 H         1 UNK         0.0807 
    122 H122      -81.5783   23.2063  -77.3805 H         1 UNK         0.2946 
    123 H123      -82.7706   24.1368  -75.6686 H         1 UNK         0.1144 
    124 H124      -80.8992   23.2330  -73.3960 H         1 UNK         0.0793 
    125 H125      -81.7324   22.1693  -74.5211 H         1 UNK         0.0793 
    126 H126      -82.6582   23.1227  -73.3741 H         1 UNK         0.0793 
    127 H127      -81.5083   25.6171  -73.4544 H         1 UNK         0.2896 
@<TRIPOS>BOND
     1    1    2 1    
     2    1   67 1    
     3    1   68 1    
     4    1   69 1    
     5    2    3 2    
     6    2    4 am   BACKBONE|DICT|INTERRES
     7    4    5 1    
     8    4   70 1    
     9    5    6 1    
    10    5   65 1    
    11    5   71 1    
    12    6    7 1    
    13    6   72 1    
    14    6   73 1    
    15    7    8 1    
    16    8    9 1    
    17    8   74 1    
    18    8   75 1    
    19    9   10 ar   
    20    9   14 ar   
    21   10   11 ar   
    22   10   76 1    
    23   11   12 ar   
    24   11   48 1    
    25   12   13 ar   
    26   12   77 1    
    27   13   14 ar   
    28   13   15 1    
    29   14   78 1    
    30   15   16 1    
    31   15   79 1    
    32   15   80 1    
    33   16   17 1    
    34   17   18 1    
    35   17   81 1    
    36   17   82 1    
    37   18   19 1    
    38   18   22 1    
    39   18   83 1    
    40   19   20 am   BACKBONE|DICT|INTERRES
    41   19   21 2    
    42   20   84 1    
    43   20   85 1    
    44   22   23 am   BACKBONE|DICT|INTERRES
    45   22   86 1    
    46   23   24 2    
    47   23   25 1    
    48   25   26 1    
    49   25   27 1    
    50   25   87 1    
    51   26   88 1    
    52   26   89 1    
    53   26   90 1    
    54   27   28 am   BACKBONE|DICT|INTERRES
    55   27   91 1    
    56   28   29 2    
    57   28   30 1    
    58   30   31 1    
    59   30   32 1    
    60   30   92 1    
    61   31   93 1    
    62   31   94 1    
    63   31   95 1    
    64   32   33 am   BACKBONE|DICT|INTERRES
    65   32   96 1    
    66   33   34 2    
    67   33   35 1    
    68   35   36 1    
    69   35   37 1    
    70   35   97 1    
    71   36   98 1    
    72   36   99 1    
    73   36  100 1    
    74   37   38 am   BACKBONE|DICT|INTERRES
    75   37  101 1    
    76   38   39 2    
    77   38   40 1    
    78   40   41 1    
    79   40   42 1    
    80   40  102 1    
    81   41  103 1    
    82   41  104 1    
    83   41  105 1    
    84   42   43 am   BACKBONE|DICT|INTERRES
    85   42  106 1    
    86   43   44 2    
    87   43   45 1    
    88   45   46 1    
    89   45   49 1    
    90   45  107 1    
    91   46   47 1    
    92   46  108 1    
    93   46  109 1    
    94   47   48 1    
    95   48  110 1    
    96   48  111 1    
    97   49   50 am   BACKBONE|DICT|INTERRES
    98   49  112 1    
    99   50   51 2    
   100   50   52 1    
   101   52   53 1    
   102   52   54 1    
   103   52  113 1    
   104   53  114 1    
   105   53  115 1    
   106   53  116 1    
   107   54   55 am   BACKBONE|DICT|INTERRES
   108   54  117 1    
   109   55   56 2    
   110   55   57 1    
   111   57   58 1    
   112   57   59 1    
   113   57  118 1    
   114   58  119 1    
   115   58  120 1    
   116   58  121 1    
   117   59   60 am   BACKBONE|DICT|INTERRES
   118   59  122 1    
   119   60   61 2    
   120   60   62 1    
   121   62   63 1    
   122   62   64 1    
   123   62  123 1    
   124   63  124 1    
   125   63  125 1    
   126   63  126 1    
   127   64   65 am   BACKBONE|DICT|INTERRES
   128   64  127 1    
   129   65   66 2    
@<TRIPOS>SUBSTRUCTURE
     1 UNK         1 GROUP             0       ****    0 ROOT    
