@<TRIPOS>MOLECULE
3R135
127   129    1
SMALL
USER_CHARGES


@<TRIPOS>ATOM
      1 CA        -84.8531   24.8034  -73.1464 C.3       0 UNK        -0.1998 
      2 C         -83.3603   25.0930  -73.1107 C.2       0 UNK         0.4909 
      3 O         -82.5574   24.1602  -73.1588 O.2       0 UNK        -0.5240 
      4 N         -82.9861   26.3804  -73.0425 N.am      1 UNK        -0.4739 
      5 CA        -81.6048   26.8864  -72.9575 C.3       1 UNK         0.0864 
      6 C6        -80.9420   26.5855  -71.5825 C.3       11 UNK        -0.0881 
      7 S7        -81.5697   27.7530  -70.3273 S.3       11 UNK        -0.2682 
      8 C8        -80.0429   28.4556  -69.6076 C.3       11 UNK         0.0289 
      9 C9        -79.0050   28.9340  -70.6233 C.ar      11 UNK        -0.0687 
     10 C10       -79.3612   29.7166  -71.7291 C.ar      11 UNK        -0.0823 
     11 C11       -78.3933   30.1474  -72.6459 C.ar      11 UNK        -0.0830 
     12 C12       -77.0528   29.8072  -72.4286 C.ar      11 UNK        -0.1021 
     13 C13       -76.6828   29.0358  -71.3245 C.ar      11 UNK        -0.0753 
     14 C14       -77.6618   28.5990  -70.4304 C.ar      11 UNK        -0.0933 
     15 C15       -75.2243   28.6770  -71.0988 C.3       11 UNK         0.0166 
     16 S16       -74.2952   30.0939  -70.4334 S.3       11 UNK        -0.2615 
     17 C17       -72.6263   29.3763  -70.2416 C.3       11 UNK        -0.0865 
     18 CA        -71.6148   29.8775  -71.3163 C.3       10 UNK         0.0862 
     19 C         -70.1518   29.4305  -71.0067 C.2       10 UNK         0.5551 
     20 N         -69.3443   29.0605  -71.9937 N.am      10 UNK        -0.7319 
     21 O         -69.7273   29.4536  -69.8538 O.2       10 UNK        -0.5018 
     22 N         -72.0623   29.6248  -72.6995 N.am      10 UNK        -0.4509 
     23 C         -72.2831   28.4240  -73.2487 C.2       10 UNK         0.4899 
     24 O         -72.1432   27.3589  -72.6436 O.2       10 UNK        -0.4839 
     25 CA        -72.7947   28.4014  -74.7027 C.3       9 UNK         0.0222 
     26 CB        -72.4980   29.6839  -75.5123 C.3       9 UNK        -0.1966 
     27 N         -72.3365   27.2050  -75.4147 N.am      9 UNK        -0.4218 
     28 C         -71.0655   26.8566  -75.6698 C.2       9 UNK         0.5020 
     29 O         -70.0945   27.5764  -75.4262 O.2       9 UNK        -0.5274 
     30 CA        -70.8128   25.4600  -76.2697 C.3       8 UNK         0.0270 
     31 CB        -70.2259   24.5213  -75.2018 C.3       8 UNK        -0.1976 
     32 N         -72.0016   24.8285  -76.8492 N.am      8 UNK        -0.4313 
     33 C         -72.5633   25.1750  -78.0141 C.2       8 UNK         0.5041 
     34 O         -72.1368   26.0837  -78.7289 O.2       8 UNK        -0.5577 
     35 CA        -73.7979   24.3781  -78.4688 C.3       7 UNK         0.0284 
     36 CB        -74.1612   23.1860  -77.5581 C.3       7 UNK        -0.1958 
     37 N         -74.9367   25.2877  -78.5318 N.am      7 UNK        -0.4454 
     38 C         -75.4419   25.8269  -79.6484 C.2       7 UNK         0.5089 
     39 O         -75.0308   25.5668  -80.7805 O.2       7 UNK        -0.5125 
     40 CA        -76.6170   26.8109  -79.4932 C.3       6 UNK         0.0408 
     41 CB        -77.8606   26.2971  -80.2393 C.3       6 UNK        -0.1791 
     42 N         -76.9654   27.0612  -78.0899 N.am      6 UNK        -0.4762 
     43 C         -76.4471   28.0552  -77.3528 C.2       6 UNK         0.5007 
     44 O         -75.6293   28.8680  -77.7847 O.2       6 UNK        -0.5032 
     45 CA        -76.9022   28.1552  -75.8826 C.3       5 UNK         0.0783 
     46 C46       -78.1975   29.0048  -75.7487 C.3       11 UNK        -0.0857 
     47 S47       -77.8460   30.7519  -75.3668 S.3       11 UNK        -0.2512 
     48 C48       -78.8158   31.0117  -73.8355 C.3       11 UNK         0.0225 
     49 N         -77.0242   26.8619  -75.1999 N.am      5 UNK        -0.4615 
     50 C         -76.0481   25.9571  -75.0344 C.2       4 UNK         0.5053 
     51 O         -74.9506   26.0154  -75.5880 O.2       4 UNK        -0.5105 
     52 CA        -76.3494   24.7875  -74.0891 C.3       4 UNK         0.0263 
     53 CB        -76.3845   25.2720  -72.6291 C.3       4 UNK        -0.1981 
     54 N         -77.6301   24.1781  -74.4373 N.am      4 UNK        -0.4224 
     55 C         -77.7728   23.0526  -75.1504 C.2       3 UNK         0.4895 
     56 O         -76.8401   22.3118  -75.4620 O.2       3 UNK        -0.5091 
     57 CA        -79.1973   22.6963  -75.6216 C.3       3 UNK         0.0250 
     58 CB        -79.8719   21.7437  -74.6218 C.3       3 UNK        -0.1996 
     59 N         -80.0637   23.8605  -75.8342 N.am      3 UNK        -0.4254 
     60 C         -79.8103   24.8655  -76.6860 C.2       2 UNK         0.5004 
     61 O         -78.8367   24.9022  -77.4366 O.2       2 UNK        -0.5226 
     62 CA        -80.7590   26.0749  -76.6509 C.3       2 UNK         0.0269 
     63 CB        -81.8619   25.9177  -77.7089 C.3       2 UNK        -0.1926 
     64 N         -81.3734   26.3507  -75.3458 N.am      2 UNK        -0.4687 
     65 C         -80.7369   26.4869  -74.1708 C.2       1 UNK         0.5165 
     66 O         -79.5227   26.3243  -74.0380 O.2       1 UNK        -0.5079 
     67 H67       -85.1105   24.2731  -74.0628 H         1 UNK         0.0900 
     68 H68       -85.1325   24.1767  -72.2999 H         1 UNK         0.0900 
     69 H69       -85.4475   25.7158  -73.1033 H         1 UNK         0.0900 
     70 H70       -83.7024   27.0932  -73.0093 H         1 UNK         0.2959 
     71 H71       -81.6784   27.9705  -73.0586 H         1 UNK         0.1079 
     72 H72       -81.1460   25.5641  -71.2589 H         1 UNK         0.0837 
     73 H73       -79.8554   26.6613  -71.6211 H         1 UNK         0.0837 
     74 H74       -80.3151   29.2952  -68.9670 H         1 UNK         0.0685 
     75 H75       -79.6094   27.6997  -68.9508 H         1 UNK         0.0685 
     76 H76       -80.3973   29.9909  -71.8725 H         1 UNK         0.1434 
     77 H77       -76.2873   30.1522  -73.1094 H         1 UNK         0.1329 
     78 H78       -77.3732   28.0039  -69.5747 H         1 UNK         0.1335 
     79 H79       -74.7910   28.3531  -72.0435 H         1 UNK         0.0680 
     80 H80       -75.1382   27.8323  -70.4134 H         1 UNK         0.0680 
     81 H81       -72.2804   29.6512  -69.2435 H         1 UNK         0.1032 
     82 H82       -72.6838   28.2869  -70.2393 H         1 UNK         0.1032 
     83 H83       -71.5811   30.9643  -71.2324 H         1 UNK         0.0461 
     84 H84       -68.3980   28.7867  -71.7818 H         1 UNK         0.3453 
     85 H85       -69.6825   29.0184  -72.9427 H         1 UNK         0.3453 
     86 H86       -72.1953   30.4475  -73.2689 H         1 UNK         0.2984 
     87 H87       -73.8774   28.3077  -74.6295 H         1 UNK         0.0554 
     88 H88       -73.0168   30.5482  -75.0965 H         1 UNK         0.0847 
     89 H89       -72.8407   29.5805  -76.5423 H         1 UNK         0.0847 
     90 H90       -71.4325   29.9149  -75.5404 H         1 UNK         0.0847 
     91 H91       -73.0727   26.5364  -75.6235 H         1 UNK         0.3141 
     92 H92       -70.0705   25.5795  -77.0619 H         1 UNK         0.0743 
     93 H93       -69.3115   24.9375  -74.7764 H         1 UNK         0.0784 
     94 H94       -70.9231   24.3620  -74.3780 H         1 UNK         0.0784 
     95 H95       -69.9706   23.5484  -75.6224 H         1 UNK         0.0784 
     96 H96       -72.4246   24.0811  -76.3179 H         1 UNK         0.3213 
     97 H97       -73.5712   23.9810  -79.4605 H         1 UNK         0.0855 
     98 H98       -74.4110   23.4969  -76.5432 H         1 UNK         0.0814 
     99 H99       -73.3444   22.4652  -77.5009 H         1 UNK         0.0814 
    100 H100      -75.0263   22.6501  -77.9496 H         1 UNK         0.0814 
    101 H101      -75.2836   25.6224  -77.6406 H         1 UNK         0.3105 
    102 H102      -76.3167   27.7484  -79.9657 H         1 UNK         0.0547 
    103 H103      -78.7149   26.9589  -80.0974 H         1 UNK         0.0837 
    104 H104      -77.6723   26.2376  -81.3120 H         1 UNK         0.0837 
    105 H105      -78.1483   25.2989  -79.9092 H         1 UNK         0.0837 
    106 H106      -77.6048   26.3931  -77.6654 H         1 UNK         0.3020 
    107 H107      -76.0975   28.6711  -75.3556 H         1 UNK         0.1245 
    108 H108      -78.8277   28.6196  -74.9495 H         1 UNK         0.0781 
    109 H109      -78.8182   28.9601  -76.6456 H         1 UNK         0.0781 
    110 H110      -79.8689   30.8453  -74.0677 H         1 UNK         0.0836 
    111 H111      -78.7280   32.0594  -73.5455 H         1 UNK         0.0836 
    112 H112      -77.9040   26.7064  -74.7126 H         1 UNK         0.3022 
    113 H113      -75.5411   24.0594  -74.1840 H         1 UNK         0.0747 
    114 H114      -77.1703   26.0096  -72.4586 H         1 UNK         0.0793 
    115 H115      -76.5540   24.4420  -71.9432 H         1 UNK         0.0793 
    116 H116      -75.4366   25.7343  -72.3501 H         1 UNK         0.0793 
    117 H117      -78.4563   24.7393  -74.2517 H         1 UNK         0.3047 
    118 H118      -79.1013   22.1809  -76.5795 H         1 UNK         0.0822 
    119 H119      -79.2590   20.8575  -74.4506 H         1 UNK         0.0807 
    120 H120      -80.8390   21.4012  -74.9902 H         1 UNK         0.0807 
    121 H121      -80.0326   22.2228  -73.6547 H         1 UNK         0.0807 
    122 H122      -80.8757   23.9381  -75.2362 H         1 UNK         0.2946 
    123 H123      -80.1616   26.9490  -76.9143 H         1 UNK         0.1144 
    124 H124      -82.4695   26.8194  -77.7875 H         1 UNK         0.0793 
    125 H125      -82.5254   25.0831  -77.4789 H         1 UNK         0.0793 
    126 H126      -81.4339   25.7324  -78.6954 H         1 UNK         0.0793 
    127 H127      -82.3742   26.4872  -75.3452 H         1 UNK         0.2896 
@<TRIPOS>BOND
     1    1    2 1    
     2    1   67 1    
     3    1   68 1    
     4    1   69 1    
     5    2    3 2    
     6    2    4 am   BACKBONE|DICT|INTERRES
     7    4    5 1    
     8    4   70 1    
     9    5    6 1    
    10    5   65 1    
    11    5   71 1    
    12    6    7 1    
    13    6   72 1    
    14    6   73 1    
    15    7    8 1    
    16    8    9 1    
    17    8   74 1    
    18    8   75 1    
    19    9   10 ar   
    20    9   14 ar   
    21   10   11 ar   
    22   10   76 1    
    23   11   12 ar   
    24   11   48 1    
    25   12   13 ar   
    26   12   77 1    
    27   13   14 ar   
    28   13   15 1    
    29   14   78 1    
    30   15   16 1    
    31   15   79 1    
    32   15   80 1    
    33   16   17 1    
    34   17   18 1    
    35   17   81 1    
    36   17   82 1    
    37   18   19 1    
    38   18   22 1    
    39   18   83 1    
    40   19   20 am   BACKBONE|DICT|INTERRES
    41   19   21 2    
    42   20   84 1    
    43   20   85 1    
    44   22   23 am   BACKBONE|DICT|INTERRES
    45   22   86 1    
    46   23   24 2    
    47   23   25 1    
    48   25   26 1    
    49   25   27 1    
    50   25   87 1    
    51   26   88 1    
    52   26   89 1    
    53   26   90 1    
    54   27   28 am   BACKBONE|DICT|INTERRES
    55   27   91 1    
    56   28   29 2    
    57   28   30 1    
    58   30   31 1    
    59   30   32 1    
    60   30   92 1    
    61   31   93 1    
    62   31   94 1    
    63   31   95 1    
    64   32   33 am   BACKBONE|DICT|INTERRES
    65   32   96 1    
    66   33   34 2    
    67   33   35 1    
    68   35   36 1    
    69   35   37 1    
    70   35   97 1    
    71   36   98 1    
    72   36   99 1    
    73   36  100 1    
    74   37   38 am   BACKBONE|DICT|INTERRES
    75   37  101 1    
    76   38   39 2    
    77   38   40 1    
    78   40   41 1    
    79   40   42 1    
    80   40  102 1    
    81   41  103 1    
    82   41  104 1    
    83   41  105 1    
    84   42   43 am   BACKBONE|DICT|INTERRES
    85   42  106 1    
    86   43   44 2    
    87   43   45 1    
    88   45   46 1    
    89   45   49 1    
    90   45  107 1    
    91   46   47 1    
    92   46  108 1    
    93   46  109 1    
    94   47   48 1    
    95   48  110 1    
    96   48  111 1    
    97   49   50 am   BACKBONE|DICT|INTERRES
    98   49  112 1    
    99   50   51 2    
   100   50   52 1    
   101   52   53 1    
   102   52   54 1    
   103   52  113 1    
   104   53  114 1    
   105   53  115 1    
   106   53  116 1    
   107   54   55 am   BACKBONE|DICT|INTERRES
   108   54  117 1    
   109   55   56 2    
   110   55   57 1    
   111   57   58 1    
   112   57   59 1    
   113   57  118 1    
   114   58  119 1    
   115   58  120 1    
   116   58  121 1    
   117   59   60 am   BACKBONE|DICT|INTERRES
   118   59  122 1    
   119   60   61 2    
   120   60   62 1    
   121   62   63 1    
   122   62   64 1    
   123   62  123 1    
   124   63  124 1    
   125   63  125 1    
   126   63  126 1    
   127   64   65 am   BACKBONE|DICT|INTERRES
   128   64  127 1    
   129   65   66 2    
@<TRIPOS>SUBSTRUCTURE
     1 UNK         1 GROUP             0       ****    0 ROOT    
