@<TRIPOS>MOLECULE
3R135
127   129    1
SMALL
USER_CHARGES


@<TRIPOS>ATOM
      1 CA        -83.3005   28.0358  -70.7838 C.3       0 UNK        -0.1998 
      2 C         -82.1982   27.8453  -71.8140 C.2       0 UNK         0.4909 
      3 O         -81.3379   26.9847  -71.6296 O.2       0 UNK        -0.5240 
      4 N         -82.2227   28.6435  -72.8911 N.am      1 UNK        -0.4739 
      5 CA        -81.2816   28.6746  -74.0232 C.3       1 UNK         0.0864 
      6 C6        -79.8125   28.9786  -73.6229 C.3       11 UNK        -0.0881 
      7 S7        -79.6068   30.6595  -72.9296 S.3       11 UNK        -0.2682 
      8 C8        -79.3683   30.3600  -71.1438 C.3       11 UNK         0.0289 
      9 C9        -78.0813   29.5979  -70.8691 C.ar      11 UNK        -0.0687 
     10 C10       -78.1297   28.2438  -70.5328 C.ar      11 UNK        -0.0823 
     11 C11       -76.9518   27.5031  -70.4167 C.ar      11 UNK        -0.0830 
     12 C12       -75.7194   28.1402  -70.5813 C.ar      11 UNK        -0.1021 
     13 C13       -75.6505   29.5025  -70.8861 C.ar      11 UNK        -0.0753 
     14 C14       -76.8425   30.2304  -71.0110 C.ar      11 UNK        -0.0933 
     15 C15       -74.2640   30.1106  -71.1059 C.3       11 UNK         0.0166 
     16 S16       -74.2018   31.8082  -71.7823 S.3       11 UNK        -0.2615 
     17 C17       -74.9385   31.7709  -73.4637 C.3       11 UNK        -0.0865 
     18 CA        -75.1080   30.4106  -74.2103 C.3       10 UNK         0.0862 
     19 C         -75.8628   30.6338  -75.5510 C.2       10 UNK         0.5551 
     20 N         -77.1791   30.7848  -75.4927 N.am      10 UNK        -0.7319 
     21 O         -75.2850   30.7111  -76.6322 O.2       10 UNK        -0.5018 
     22 N         -73.8623   29.6344  -74.3507 N.am      10 UNK        -0.4509 
     23 C         -72.6977   30.0455  -74.8701 C.2       10 UNK         0.4899 
     24 O         -72.5117   31.1570  -75.3663 O.2       10 UNK        -0.4839 
     25 CA        -71.4976   29.0918  -74.7583 C.3       9 UNK         0.0222 
     26 CB        -70.7486   29.3959  -73.4401 C.3       9 UNK        -0.1966 
     27 N         -71.8410   27.6636  -74.8542 N.am      9 UNK        -0.4218 
     28 C         -70.9293   26.6820  -74.9496 C.2       9 UNK         0.5020 
     29 O         -69.7143   26.8777  -75.0177 O.2       9 UNK        -0.5274 
     30 CA        -71.4385   25.2308  -74.9580 C.3       8 UNK         0.0270 
     31 CB        -72.0397   24.8402  -73.5965 C.3       8 UNK        -0.1976 
     32 N         -72.3927   24.9627  -76.0335 N.am      8 UNK        -0.4313 
     33 C         -72.0812   24.9265  -77.3376 C.2       8 UNK         0.5041 
     34 O         -70.9413   25.0840  -77.7771 O.2       8 UNK        -0.5577 
     35 CA        -73.2328   24.6707  -78.3265 C.3       7 UNK         0.0284 
     36 CB        -73.4754   23.1633  -78.5043 C.3       7 UNK        -0.1958 
     37 N         -74.4778   25.3273  -77.9254 N.am      7 UNK        -0.4454 
     38 C         -74.6501   26.6560  -77.8853 C.2       7 UNK         0.5089 
     39 O         -73.8135   27.4693  -78.2780 O.2       7 UNK        -0.5125 
     40 CA        -75.9611   27.1636  -77.2658 C.3       6 UNK         0.0408 
     41 CB        -77.0953   27.1769  -78.3012 C.3       6 UNK        -0.1791 
     42 N         -76.3730   26.3973  -76.0892 N.am      6 UNK        -0.4762 
     43 C         -75.6787   26.3006  -74.9463 C.2       6 UNK         0.5007 
     44 O         -74.6167   26.8873  -74.7304 O.2       6 UNK        -0.5032 
     45 CA        -76.2537   25.3611  -73.8713 C.3       5 UNK         0.0783 
     46 C46       -77.3898   26.0646  -73.1027 C.3       11 UNK        -0.0857 
     47 S47       -77.9088   25.1562  -71.6021 S.3       11 UNK        -0.2512 
     48 C48       -77.0107   25.9919  -70.2428 C.3       11 UNK         0.0225 
     49 N         -76.6910   24.0916  -74.4534 N.am      5 UNK        -0.4615 
     50 C         -75.8796   23.1860  -75.0123 C.2       4 UNK         0.5053 
     51 O         -74.6554   23.2981  -75.0543 O.2       4 UNK        -0.5105 
     52 CA        -76.5569   21.9740  -75.6732 C.3       4 UNK         0.0263 
     53 CB        -76.8714   20.8932  -74.6270 C.3       4 UNK        -0.1981 
     54 N         -77.7833   22.3393  -76.3891 N.am      4 UNK        -0.4224 
     55 C         -77.8149   23.1121  -77.4850 C.2       3 UNK         0.4895 
     56 O         -76.8089   23.5545  -78.0391 O.2       3 UNK        -0.5091 
     57 CA        -79.2045   23.4948  -78.0258 C.3       3 UNK         0.0250 
     58 CB        -79.7542   22.3865  -78.9378 C.3       3 UNK        -0.1996 
     59 N         -80.1840   23.8038  -76.9754 N.am      3 UNK        -0.4254 
     60 C         -80.0469   24.7898  -76.0773 C.2       2 UNK         0.5004 
     61 O         -79.0582   25.5228  -76.0253 O.2       2 UNK        -0.5226 
     62 CA        -81.1716   24.9360  -75.0353 C.3       2 UNK         0.0269 
     63 CB        -81.0550   23.8335  -73.9692 C.3       2 UNK        -0.1926 
     64 N         -81.1613   26.2354  -74.3553 N.am      2 UNK        -0.4687 
     65 C         -81.3866   27.4252  -74.9266 C.2       1 UNK         0.5165 
     66 O         -81.6983   27.5627  -76.1109 O.2       1 UNK        -0.5079 
     67 H67       -83.9898   28.8320  -71.0644 H         1 UNK         0.0900 
     68 H68       -82.8676   28.2873  -69.8161 H         1 UNK         0.0900 
     69 H69       -83.8721   27.1148  -70.6726 H         1 UNK         0.0900 
     70 H70       -82.9786   29.3098  -72.9693 H         1 UNK         0.2959 
     71 H71       -81.6157   29.5065  -74.6461 H         1 UNK         0.1079 
     72 H72       -79.4379   28.2316  -72.9256 H         1 UNK         0.0837 
     73 H73       -79.1633   28.9102  -74.4979 H         1 UNK         0.0837 
     74 H74       -79.3369   31.3194  -70.6257 H         1 UNK         0.0685 
     75 H75       -80.2317   29.8257  -70.7460 H         1 UNK         0.0685 
     76 H76       -79.0845   27.7432  -70.4430 H         1 UNK         0.1434 
     77 H77       -74.8062   27.5644  -70.5118 H         1 UNK         0.1329 
     78 H78       -76.8239   31.2805  -71.2623 H         1 UNK         0.1335 
     79 H79       -73.6678   29.4517  -71.7356 H         1 UNK         0.0680 
     80 H80       -73.7570   30.1301  -70.1403 H         1 UNK         0.0680 
     81 H81       -74.3574   32.4596  -74.0789 H         1 UNK         0.1032 
     82 H82       -75.9154   32.2483  -73.3669 H         1 UNK         0.1032 
     83 H83       -75.7574   29.7725  -73.6119 H         1 UNK         0.0461 
     84 H84       -77.6762   30.7559  -74.6151 H         1 UNK         0.3453 
     85 H85       -77.6849   30.9517  -76.3479 H         1 UNK         0.3453 
     86 H86       -73.9444   28.6708  -74.0537 H         1 UNK         0.2984 
     87 H87       -70.8347   29.3260  -75.5940 H         1 UNK         0.0554 
     88 H88       -69.7678   28.9231  -73.4068 H         1 UNK         0.0847 
     89 H89       -71.3127   29.0564  -72.5711 H         1 UNK         0.0847 
     90 H90       -70.5812   30.4674  -73.3191 H         1 UNK         0.0847 
     91 H91       -72.8279   27.4134  -74.8733 H         1 UNK         0.3141 
     92 H92       -70.5738   24.5847  -75.1250 H         1 UNK         0.0743 
     93 H93       -72.9286   25.4213  -73.3552 H         1 UNK         0.0784 
     94 H94       -72.3151   23.7856  -73.5743 H         1 UNK         0.0784 
     95 H95       -71.3194   25.0024  -72.7936 H         1 UNK         0.0784 
     96 H96       -73.3440   24.7448  -75.7568 H         1 UNK         0.3213 
     97 H97       -72.9354   25.0825  -79.2934 H         1 UNK         0.0855 
     98 H98       -73.7901   22.6910  -77.5735 H         1 UNK         0.0814 
     99 H99       -72.5667   22.6588  -78.8353 H         1 UNK         0.0814 
    100 H100      -74.2446   22.9712  -79.2526 H         1 UNK         0.0814 
    101 H101      -75.2554   24.7270  -77.6650 H         1 UNK         0.3105 
    102 H102      -75.7910   28.1873  -76.9410 H         1 UNK         0.0547 
    103 H103      -76.8293   27.7927  -79.1612 H         1 UNK         0.0837 
    104 H104      -77.3161   26.1761  -78.6717 H         1 UNK         0.0837 
    105 H105      -78.0126   27.5872  -77.8783 H         1 UNK         0.0837 
    106 H106      -77.2763   25.9279  -76.1455 H         1 UNK         0.3020 
    107 H107      -75.4445   25.1475  -73.1694 H         1 UNK         0.1245 
    108 H108      -78.2718   26.1675  -73.7325 H         1 UNK         0.0781 
    109 H109      -77.1072   27.0889  -72.8680 H         1 UNK         0.0781 
    110 H110      -76.0060   25.5708  -70.1835 H         1 UNK         0.0836 
    111 H111      -77.4982   25.7564  -69.2960 H         1 UNK         0.0836 
    112 H112      -77.6873   23.9414  -74.4905 H         1 UNK         0.3022 
    113 H113      -75.8545   21.5558  -76.3975 H         1 UNK         0.0747 
    114 H114      -77.2818   19.9973  -75.0932 H         1 UNK         0.0793 
    115 H115      -75.9677   20.5938  -74.0940 H         1 UNK         0.0793 
    116 H116      -77.5875   21.2436  -73.8824 H         1 UNK         0.0793 
    117 H117      -78.6574   22.0124  -76.0045 H         1 UNK         0.3047 
    118 H118      -79.0794   24.3968  -78.6284 H         1 UNK         0.0822 
    119 H119      -80.6875   22.6897  -79.4127 H         1 UNK         0.0807 
    120 H120      -79.9407   21.4629  -78.3885 H         1 UNK         0.0807 
    121 H121      -79.0484   22.1536  -79.7366 H         1 UNK         0.0807 
    122 H122      -81.0177   23.2337  -76.9527 H         1 UNK         0.2946 
    123 H123      -82.1285   24.8369  -75.5524 H         1 UNK         0.1144 
    124 H124      -80.1111   23.8971  -73.4263 H         1 UNK         0.0793 
    125 H125      -81.1108   22.8393  -74.4142 H         1 UNK         0.0793 
    126 H126      -81.8619   23.9030  -73.2393 H         1 UNK         0.0793 
    127 H127      -80.9664   26.2365  -73.3575 H         1 UNK         0.2896 
@<TRIPOS>BOND
     1    1    2 1    
     2    1   67 1    
     3    1   68 1    
     4    1   69 1    
     5    2    3 2    
     6    2    4 am   BACKBONE|DICT|INTERRES
     7    4    5 1    
     8    4   70 1    
     9    5    6 1    
    10    5   65 1    
    11    5   71 1    
    12    6    7 1    
    13    6   72 1    
    14    6   73 1    
    15    7    8 1    
    16    8    9 1    
    17    8   74 1    
    18    8   75 1    
    19    9   10 ar   
    20    9   14 ar   
    21   10   11 ar   
    22   10   76 1    
    23   11   12 ar   
    24   11   48 1    
    25   12   13 ar   
    26   12   77 1    
    27   13   14 ar   
    28   13   15 1    
    29   14   78 1    
    30   15   16 1    
    31   15   79 1    
    32   15   80 1    
    33   16   17 1    
    34   17   18 1    
    35   17   81 1    
    36   17   82 1    
    37   18   19 1    
    38   18   22 1    
    39   18   83 1    
    40   19   20 am   BACKBONE|DICT|INTERRES
    41   19   21 2    
    42   20   84 1    
    43   20   85 1    
    44   22   23 am   BACKBONE|DICT|INTERRES
    45   22   86 1    
    46   23   24 2    
    47   23   25 1    
    48   25   26 1    
    49   25   27 1    
    50   25   87 1    
    51   26   88 1    
    52   26   89 1    
    53   26   90 1    
    54   27   28 am   BACKBONE|DICT|INTERRES
    55   27   91 1    
    56   28   29 2    
    57   28   30 1    
    58   30   31 1    
    59   30   32 1    
    60   30   92 1    
    61   31   93 1    
    62   31   94 1    
    63   31   95 1    
    64   32   33 am   BACKBONE|DICT|INTERRES
    65   32   96 1    
    66   33   34 2    
    67   33   35 1    
    68   35   36 1    
    69   35   37 1    
    70   35   97 1    
    71   36   98 1    
    72   36   99 1    
    73   36  100 1    
    74   37   38 am   BACKBONE|DICT|INTERRES
    75   37  101 1    
    76   38   39 2    
    77   38   40 1    
    78   40   41 1    
    79   40   42 1    
    80   40  102 1    
    81   41  103 1    
    82   41  104 1    
    83   41  105 1    
    84   42   43 am   BACKBONE|DICT|INTERRES
    85   42  106 1    
    86   43   44 2    
    87   43   45 1    
    88   45   46 1    
    89   45   49 1    
    90   45  107 1    
    91   46   47 1    
    92   46  108 1    
    93   46  109 1    
    94   47   48 1    
    95   48  110 1    
    96   48  111 1    
    97   49   50 am   BACKBONE|DICT|INTERRES
    98   49  112 1    
    99   50   51 2    
   100   50   52 1    
   101   52   53 1    
   102   52   54 1    
   103   52  113 1    
   104   53  114 1    
   105   53  115 1    
   106   53  116 1    
   107   54   55 am   BACKBONE|DICT|INTERRES
   108   54  117 1    
   109   55   56 2    
   110   55   57 1    
   111   57   58 1    
   112   57   59 1    
   113   57  118 1    
   114   58  119 1    
   115   58  120 1    
   116   58  121 1    
   117   59   60 am   BACKBONE|DICT|INTERRES
   118   59  122 1    
   119   60   61 2    
   120   60   62 1    
   121   62   63 1    
   122   62   64 1    
   123   62  123 1    
   124   63  124 1    
   125   63  125 1    
   126   63  126 1    
   127   64   65 am   BACKBONE|DICT|INTERRES
   128   64  127 1    
   129   65   66 2    
@<TRIPOS>SUBSTRUCTURE
     1 UNK         1 GROUP             0       ****    0 ROOT    
