@<TRIPOS>MOLECULE
3R135
127   129    1
SMALL
USER_CHARGES


@<TRIPOS>ATOM
      1 CA        -82.1135   22.1206  -72.7806 C.3       0 UNK        -0.1998 
      2 C         -81.8905   23.6207  -72.6759 C.2       0 UNK         0.4909 
      3 O         -80.8489   24.1109  -73.1165 O.2       0 UNK        -0.5240 
      4 N         -82.8756   24.3490  -72.1250 N.am      1 UNK        -0.4739 
      5 CA        -82.9134   25.7941  -71.8172 C.3       1 UNK         0.0864 
      6 C6        -81.9097   26.1848  -70.6767 C.3       11 UNK        -0.0881 
      7 S7        -80.8331   27.6516  -70.8863 S.3       11 UNK        -0.2682 
      8 C8        -79.4226   26.8671  -71.7155 C.3       11 UNK         0.0289 
      9 C9        -78.3011   27.8478  -72.0121 C.ar      11 UNK        -0.0687 
     10 C10       -78.4620   28.8197  -73.0032 C.ar      11 UNK        -0.0823 
     11 C11       -77.4120   29.6849  -73.3264 C.ar      11 UNK        -0.0830 
     12 C12       -76.1953   29.5696  -72.6492 C.ar      11 UNK        -0.1021 
     13 C13       -76.0255   28.6077  -71.6472 C.ar      11 UNK        -0.0753 
     14 C14       -77.0840   27.7513  -71.3320 C.ar      11 UNK        -0.0933 
     15 C15       -74.6847   28.4523  -70.9440 C.3       11 UNK         0.0166 
     16 S16       -74.0835   30.0187  -70.2352 S.3       11 UNK        -0.2615 
     17 C17       -72.2791   29.7678  -70.3474 C.3       11 UNK        -0.0865 
     18 CA        -71.6500   30.4898  -71.5700 C.3       10 UNK         0.0862 
     19 C         -70.0947   30.4122  -71.5207 C.2       10 UNK         0.5551 
     20 N         -69.4211   29.8410  -72.5120 N.am      10 UNK        -0.7319 
     21 O         -69.4876   30.8863  -70.5636 O.2       10 UNK        -0.5018 
     22 N         -72.2474   30.0435  -72.8424 N.am      10 UNK        -0.4509 
     23 C         -72.2394   30.7396  -73.9846 C.2       10 UNK         0.4899 
     24 O         -71.7410   31.8603  -74.0995 O.2       10 UNK        -0.4839 
     25 CA        -72.8685   30.0424  -75.2055 C.3       9 UNK         0.0222 
     26 CB        -72.8968   30.9392  -76.4569 C.3       9 UNK        -0.1966 
     27 N         -72.1639   28.7970  -75.5226 N.am      9 UNK        -0.4218 
     28 C         -72.3997   27.6196  -74.9328 C.2       9 UNK         0.5020 
     29 O         -73.2426   27.4578  -74.0507 O.2       9 UNK        -0.5274 
     30 CA        -71.5233   26.4393  -75.3551 C.3       8 UNK         0.0270 
     31 CB        -70.6844   25.9242  -74.1690 C.3       8 UNK        -0.1976 
     32 N         -72.3821   25.3808  -75.8789 N.am      8 UNK        -0.4313 
     33 C         -71.9705   24.4046  -76.6986 C.2       8 UNK         0.5041 
     34 O         -70.7991   24.2499  -77.0480 O.2       8 UNK        -0.5577 
     35 CA        -73.0470   23.4629  -77.2587 C.3       7 UNK         0.0284 
     36 CB        -73.5307   22.4608  -76.1965 C.3       7 UNK        -0.1958 
     37 N         -74.1762   24.2223  -77.7967 N.am      7 UNK        -0.4454 
     38 C         -74.1761   24.8228  -78.9966 C.2       7 UNK         0.5089 
     39 O         -73.2608   24.7179  -79.8137 O.2       7 UNK        -0.5125 
     40 CA        -75.3962   25.6903  -79.3553 C.3       6 UNK         0.0408 
     41 CB        -76.3870   24.8972  -80.2217 C.3       6 UNK        -0.1791 
     42 N         -76.0863   26.2105  -78.1735 N.am      6 UNK        -0.4762 
     43 C         -75.6262   27.2182  -77.4138 C.2       6 UNK         0.5007 
     44 O         -74.6074   27.8552  -77.6795 O.2       6 UNK        -0.5032 
     45 CA        -76.4200   27.5463  -76.1299 C.3       5 UNK         0.0783 
     46 C46       -77.4189   28.7100  -76.3721 C.3       11 UNK        -0.0857 
     47 S47       -76.6961   30.3274  -75.9417 S.3       11 UNK        -0.2512 
     48 C48       -77.5913   30.7417  -74.4086 C.3       11 UNK         0.0225 
     49 N         -77.0826   26.3630  -75.5677 N.am      5 UNK        -0.4615 
     50 C         -76.4351   25.2875  -75.0928 C.2       4 UNK         0.5053 
     51 O         -75.2083   25.1972  -75.0631 O.2       4 UNK        -0.5105 
     52 CA        -77.2744   24.0758  -74.6445 C.3       4 UNK         0.0263 
     53 CB        -77.3595   24.0066  -73.1145 C.3       4 UNK        -0.1981 
     54 N         -78.6225   24.0369  -75.2218 N.am      4 UNK        -0.4224 
     55 C         -78.8633   23.8768  -76.5326 C.2       3 UNK         0.4895 
     56 O         -77.9752   23.7422  -77.3749 O.2       3 UNK        -0.5091 
     57 CA        -80.3285   23.9153  -76.9952 C.3       3 UNK         0.0250 
     58 CB        -80.9538   22.5145  -76.9044 C.3       3 UNK        -0.1996 
     59 N         -81.1646   24.8718  -76.2640 N.am      3 UNK        -0.4254 
     60 C         -80.9568   26.1963  -76.1929 C.2       2 UNK         0.5004 
     61 O         -79.9936   26.7705  -76.6977 O.2       2 UNK        -0.5226 
     62 CA        -81.9791   26.9991  -75.3829 C.3       2 UNK         0.0269 
     63 CB        -83.2827   27.1849  -76.1854 C.3       2 UNK        -0.1926 
     64 N         -82.2096   26.3072  -74.1179 N.am      2 UNK        -0.4687 
     65 C         -82.9219   26.7152  -73.0658 C.2       1 UNK         0.5165 
     66 O         -83.5800   27.7567  -73.0488 O.2       1 UNK        -0.5079 
     67 H67       -81.2265   21.5864  -72.4411 H         1 UNK         0.0900 
     68 H68       -82.9570   21.7921  -72.1740 H         1 UNK         0.0900 
     69 H69       -82.3066   21.8394  -73.8149 H         1 UNK         0.0900 
     70 H70       -83.7136   23.8567  -71.8458 H         1 UNK         0.2959 
     71 H71       -83.9115   25.9365  -71.3980 H         1 UNK         0.1079 
     72 H72       -81.2663   25.3399  -70.4267 H         1 UNK         0.0837 
     73 H73       -82.4803   26.3565  -69.7627 H         1 UNK         0.0837 
     74 H74       -79.0619   26.0466  -71.0936 H         1 UNK         0.0685 
     75 H75       -79.7563   26.4264  -72.6542 H         1 UNK         0.0685 
     76 H76       -79.4050   28.8923  -73.5275 H         1 UNK         0.1434 
     77 H77       -75.3760   30.2268  -72.9059 H         1 UNK         0.1329 
     78 H78       -76.9530   26.9928  -70.5724 H         1 UNK         0.1335 
     79 H79       -73.9675   28.0653  -71.6655 H         1 UNK         0.0680 
     80 H80       -74.7434   27.7114  -70.1453 H         1 UNK         0.0680 
     81 H81       -72.0478   28.7011  -70.3652 H         1 UNK         0.1032 
     82 H82       -71.8462   30.1485  -69.4201 H         1 UNK         0.1032 
     83 H83       -71.8858   31.5507  -71.4656 H         1 UNK         0.0461 
     84 H84       -69.9085   29.4689  -73.3095 H         1 UNK         0.3453 
     85 H85       -68.4149   29.8023  -72.4678 H         1 UNK         0.3453 
     86 H86       -72.6595   29.1178  -72.8567 H         1 UNK         0.2984 
     87 H87       -73.9034   29.8109  -74.9470 H         1 UNK         0.0554 
     88 H88       -73.4446   31.8620  -76.2617 H         1 UNK         0.0847 
     89 H89       -73.3978   30.4399  -77.2868 H         1 UNK         0.0847 
     90 H90       -71.8939   31.2154  -76.7843 H         1 UNK         0.0847 
     91 H91       -71.4400   28.8568  -76.2245 H         1 UNK         0.3141 
     92 H92       -70.8475   26.7691  -76.1472 H         1 UNK         0.0743 
     93 H93       -71.3168   25.5378  -73.3686 H         1 UNK         0.0784 
     94 H94       -70.0080   25.1260  -74.4745 H         1 UNK         0.0784 
     95 H95       -70.0723   26.7219  -73.7463 H         1 UNK         0.0784 
     96 H96       -73.3637   25.4355  -75.6073 H         1 UNK         0.3213 
     97 H97       -72.5978   22.8873  -78.0715 H         1 UNK         0.0855 
     98 H98       -73.9494   22.9541  -75.3199 H         1 UNK         0.0814 
     99 H99       -72.7039   21.8394  -75.8501 H         1 UNK         0.0814 
    100 H100      -74.2910   21.7917  -76.5997 H         1 UNK         0.0814 
    101 H101      -74.9489   24.3992  -77.1694 H         1 UNK         0.3105 
    102 H102      -75.0388   26.5372  -79.9450 H         1 UNK         0.0547 
    103 H103      -75.9137   24.5661  -81.1470 H         1 UNK         0.0837 
    104 H104      -76.7518   24.0065  -79.7096 H         1 UNK         0.0837 
    105 H105      -77.2494   25.5036  -80.4986 H         1 UNK         0.0837 
    106 H106      -76.9171   25.7125  -77.8764 H         1 UNK         0.3020 
    107 H107      -75.6873   27.8574  -75.3801 H         1 UNK         0.1245 
    108 H108      -78.3224   28.5750  -75.7788 H         1 UNK         0.0781 
    109 H109      -77.7714   28.7412  -77.4053 H         1 UNK         0.0781 
    110 H110      -78.6482   30.8839  -74.6396 H         1 UNK         0.0836 
    111 H111      -77.2303   31.7022  -74.0380 H         1 UNK         0.0836 
    112 H112      -78.0931   26.3473  -75.6239 H         1 UNK         0.3022 
    113 H113      -76.7487   23.1818  -74.9871 H         1 UNK         0.0747 
    114 H114      -77.9177   23.1307  -72.7831 H         1 UNK         0.0793 
    115 H115      -76.3646   23.9481  -72.6710 H         1 UNK         0.0793 
    116 H116      -77.8441   24.8888  -72.7055 H         1 UNK         0.0793 
    117 H117      -79.4041   24.1226  -74.5789 H         1 UNK         0.3047 
    118 H118      -80.3284   24.2221  -78.0433 H         1 UNK         0.0822 
    119 H119      -81.9677   22.5031  -77.3049 H         1 UNK         0.0807 
    120 H120      -80.9924   22.1560  -75.8754 H         1 UNK         0.0807 
    121 H121      -80.3729   21.7912  -77.4787 H         1 UNK         0.0807 
    122 H122      -81.9925   24.4974  -75.8246 H         1 UNK         0.2946 
    123 H123      -81.5474   27.9788  -75.1676 H         1 UNK         0.1144 
    124 H124      -83.0777   27.6165  -77.1662 H         1 UNK         0.0793 
    125 H125      -83.9733   27.8602  -75.6809 H         1 UNK         0.0793 
    126 H126      -83.7995   26.2382  -76.3459 H         1 UNK         0.0793 
    127 H127      -81.6556   25.4659  -73.9645 H         1 UNK         0.2896 
@<TRIPOS>BOND
     1    1    2 1    
     2    1   67 1    
     3    1   68 1    
     4    1   69 1    
     5    2    3 2    
     6    2    4 am   BACKBONE|DICT|INTERRES
     7    4    5 1    
     8    4   70 1    
     9    5    6 1    
    10    5   65 1    
    11    5   71 1    
    12    6    7 1    
    13    6   72 1    
    14    6   73 1    
    15    7    8 1    
    16    8    9 1    
    17    8   74 1    
    18    8   75 1    
    19    9   10 ar   
    20    9   14 ar   
    21   10   11 ar   
    22   10   76 1    
    23   11   12 ar   
    24   11   48 1    
    25   12   13 ar   
    26   12   77 1    
    27   13   14 ar   
    28   13   15 1    
    29   14   78 1    
    30   15   16 1    
    31   15   79 1    
    32   15   80 1    
    33   16   17 1    
    34   17   18 1    
    35   17   81 1    
    36   17   82 1    
    37   18   19 1    
    38   18   22 1    
    39   18   83 1    
    40   19   20 am   BACKBONE|DICT|INTERRES
    41   19   21 2    
    42   20   84 1    
    43   20   85 1    
    44   22   23 am   BACKBONE|DICT|INTERRES
    45   22   86 1    
    46   23   24 2    
    47   23   25 1    
    48   25   26 1    
    49   25   27 1    
    50   25   87 1    
    51   26   88 1    
    52   26   89 1    
    53   26   90 1    
    54   27   28 am   BACKBONE|DICT|INTERRES
    55   27   91 1    
    56   28   29 2    
    57   28   30 1    
    58   30   31 1    
    59   30   32 1    
    60   30   92 1    
    61   31   93 1    
    62   31   94 1    
    63   31   95 1    
    64   32   33 am   BACKBONE|DICT|INTERRES
    65   32   96 1    
    66   33   34 2    
    67   33   35 1    
    68   35   36 1    
    69   35   37 1    
    70   35   97 1    
    71   36   98 1    
    72   36   99 1    
    73   36  100 1    
    74   37   38 am   BACKBONE|DICT|INTERRES
    75   37  101 1    
    76   38   39 2    
    77   38   40 1    
    78   40   41 1    
    79   40   42 1    
    80   40  102 1    
    81   41  103 1    
    82   41  104 1    
    83   41  105 1    
    84   42   43 am   BACKBONE|DICT|INTERRES
    85   42  106 1    
    86   43   44 2    
    87   43   45 1    
    88   45   46 1    
    89   45   49 1    
    90   45  107 1    
    91   46   47 1    
    92   46  108 1    
    93   46  109 1    
    94   47   48 1    
    95   48  110 1    
    96   48  111 1    
    97   49   50 am   BACKBONE|DICT|INTERRES
    98   49  112 1    
    99   50   51 2    
   100   50   52 1    
   101   52   53 1    
   102   52   54 1    
   103   52  113 1    
   104   53  114 1    
   105   53  115 1    
   106   53  116 1    
   107   54   55 am   BACKBONE|DICT|INTERRES
   108   54  117 1    
   109   55   56 2    
   110   55   57 1    
   111   57   58 1    
   112   57   59 1    
   113   57  118 1    
   114   58  119 1    
   115   58  120 1    
   116   58  121 1    
   117   59   60 am   BACKBONE|DICT|INTERRES
   118   59  122 1    
   119   60   61 2    
   120   60   62 1    
   121   62   63 1    
   122   62   64 1    
   123   62  123 1    
   124   63  124 1    
   125   63  125 1    
   126   63  126 1    
   127   64   65 am   BACKBONE|DICT|INTERRES
   128   64  127 1    
   129   65   66 2    
@<TRIPOS>SUBSTRUCTURE
     1 UNK         1 GROUP             0       ****    0 ROOT    
