@<TRIPOS>MOLECULE
3R135
127   129    1
SMALL
USER_CHARGES


@<TRIPOS>ATOM
      1 CA        -81.0554   27.7990  -77.1160 C.3       0 UNK        -0.1998 
      2 C         -80.4395   27.3378  -75.8055 C.2       0 UNK         0.4909 
      3 O         -79.3668   26.7339  -75.8241 O.2       0 UNK        -0.5240 
      4 N         -81.1057   27.6188  -74.6753 N.am      1 UNK        -0.4739 
      5 CA        -80.6847   27.2699  -73.3099 C.3       1 UNK         0.0864 
      6 C6        -81.6685   27.8529  -72.2636 C.3       11 UNK        -0.0881 
      7 S7        -81.0640   27.7617  -70.5427 S.3       11 UNK        -0.2682 
      8 C8        -80.6720   29.5012  -70.1745 C.3       11 UNK         0.0289 
      9 C9        -79.3178   29.9046  -70.7373 C.ar      11 UNK        -0.0687 
     10 C10       -79.2217   30.5367  -71.9808 C.ar      11 UNK        -0.0823 
     11 C11       -77.9748   30.9157  -72.4898 C.ar      11 UNK        -0.0830 
     12 C12       -76.8219   30.6661  -71.7385 C.ar      11 UNK        -0.1021 
     13 C13       -76.9047   30.0191  -70.5030 C.ar      11 UNK        -0.0753 
     14 C14       -78.1561   29.6500  -70.0029 C.ar      11 UNK        -0.0933 
     15 C15       -75.6396   29.7058  -69.7174 C.3       11 UNK         0.0166 
     16 S16       -75.3084   27.9157  -69.6340 S.3       11 UNK        -0.2615 
     17 C17       -75.0289   27.5003  -71.3898 C.3       11 UNK        -0.0865 
     18 CA        -73.5294   27.5616  -71.7911 C.3       10 UNK         0.0862 
     19 C         -72.7503   26.2324  -71.5640 C.2       10 UNK         0.5551 
     20 N         -71.7287   25.9275  -72.3573 N.am      10 UNK        -0.7319 
     21 O         -73.0622   25.4659  -70.6568 O.2       10 UNK        -0.5018 
     22 N         -73.3693   28.0626  -73.1603 N.am      10 UNK        -0.4509 
     23 C         -73.0547   29.3160  -73.5041 C.2       10 UNK         0.4899 
     24 O         -72.9843   30.2446  -72.6981 O.2       10 UNK        -0.4839 
     25 CA        -72.7729   29.5858  -75.0010 C.3       9 UNK         0.0222 
     26 CB        -71.6908   30.6692  -75.1940 C.3       9 UNK        -0.1966 
     27 N         -72.4463   28.3940  -75.8074 N.am      9 UNK        -0.4218 
     28 C         -71.4304   27.5415  -75.5960 C.2       9 UNK         0.5020 
     29 O         -70.6992   27.5961  -74.6048 O.2       9 UNK        -0.5274 
     30 CA        -71.1848   26.4449  -76.6439 C.3       8 UNK         0.0270 
     31 CB        -70.2766   25.3134  -76.1102 C.3       8 UNK        -0.1976 
     32 N         -72.4241   25.8728  -77.1807 N.am      8 UNK        -0.4313 
     33 C         -72.4855   25.2780  -78.3826 C.2       8 UNK         0.5041 
     34 O         -71.5659   25.2986  -79.2030 O.2       8 UNK        -0.5577 
     35 CA        -73.7566   24.4861  -78.7233 C.3       7 UNK         0.0284 
     36 CB        -73.8675   23.2306  -77.8419 C.3       7 UNK        -0.1958 
     37 N         -74.9763   25.2826  -78.6191 N.am      7 UNK        -0.4454 
     38 C         -75.3168   26.2714  -79.4574 C.2       7 UNK         0.5089 
     39 O         -74.6497   26.6060  -80.4369 O.2       7 UNK        -0.5125 
     40 CA        -76.6197   27.0292  -79.1403 C.3       6 UNK         0.0408 
     41 CB        -77.8421   26.2749  -79.6872 C.3       6 UNK        -0.1791 
     42 N         -76.7989   27.2833  -77.7092 N.am      6 UNK        -0.4762 
     43 C         -75.9647   28.0156  -76.9558 C.2       6 UNK         0.5007 
     44 O         -74.9576   28.5794  -77.3856 O.2       6 UNK        -0.5032 
     45 CA        -76.2805   28.0646  -75.4522 C.3       5 UNK         0.0783 
     46 C46       -77.3723   29.1108  -75.1240 C.3       11 UNK        -0.0857 
     47 S47       -76.6753   30.7876  -74.9646 S.3       11 UNK        -0.2512 
     48 C48       -77.8779   31.5914  -73.8528 C.3       11 UNK         0.0225 
     49 N         -76.5959   26.7236  -74.9543 N.am      5 UNK        -0.4615 
     50 C         -75.6824   25.7519  -74.8109 C.2       4 UNK         0.5053 
     51 O         -74.4736   25.9251  -74.9879 O.2       4 UNK        -0.5105 
     52 CA        -76.1931   24.3478  -74.4489 C.3       4 UNK         0.0263 
     53 CB        -76.1666   24.1212  -72.9311 C.3       4 UNK        -0.1981 
     54 N         -77.5365   24.0749  -74.9665 N.am      4 UNK        -0.4224 
     55 C         -77.8014   23.8351  -76.2591 C.2       3 UNK         0.4895 
     56 O         -76.9339   23.8690  -77.1296 O.2       3 UNK        -0.5091 
     57 CA        -79.2519   23.5482  -76.6930 C.3       3 UNK         0.0250 
     58 CB        -79.3734   22.1861  -77.4059 C.3       3 UNK        -0.1996 
     59 N         -80.2567   23.7013  -75.6355 N.am      3 UNK        -0.4254 
     60 C         -80.4760   22.9422  -74.5518 C.2       2 UNK         0.5004 
     61 O         -79.8757   21.8963  -74.3028 O.2       2 UNK        -0.5226 
     62 CA        -81.5229   23.4957  -73.5613 C.3       2 UNK         0.0269 
     63 CB        -81.3942   22.8854  -72.1489 C.3       2 UNK        -0.1926 
     64 N         -81.5160   24.9679  -73.4987 N.am      2 UNK        -0.4687 
     65 C         -80.4809   25.7493  -73.1441 C.2       1 UNK         0.5165 
     66 O         -79.3850   25.3183  -72.7854 O.2       1 UNK        -0.5079 
     67 H67       -81.2372   26.9432  -77.7654 H         1 UNK         0.0900 
     68 H68       -82.0011   28.3184  -76.9634 H         1 UNK         0.0900 
     69 H69       -80.3738   28.4766  -77.6294 H         1 UNK         0.0900 
     70 H70       -81.9817   28.1171  -74.7441 H         1 UNK         0.2959 
     71 H71       -79.7112   27.7377  -73.1503 H         1 UNK         0.1079 
     72 H72       -82.6327   27.3436  -72.3125 H         1 UNK         0.0837 
     73 H73       -81.8820   28.8956  -72.5020 H         1 UNK         0.0837 
     74 H74       -81.4609   30.1545  -70.5504 H         1 UNK         0.0685 
     75 H75       -80.6670   29.6328  -69.0914 H         1 UNK         0.0685 
     76 H76       -80.1189   30.7317  -72.5520 H         1 UNK         0.1434 
     77 H77       -75.8548   30.9531  -72.1299 H         1 UNK         0.1329 
     78 H78       -78.2230   29.1490  -69.0466 H         1 UNK         0.1335 
     79 H79       -74.7741   30.2068  -70.1549 H         1 UNK         0.0680 
     80 H80       -75.7413   30.0950  -68.7035 H         1 UNK         0.0680 
     81 H81       -75.4452   26.5123  -71.5790 H         1 UNK         0.1032 
     82 H82       -75.6213   28.1729  -72.0097 H         1 UNK         0.1032 
     83 H83       -73.0306   28.2675  -71.1247 H         1 UNK         0.0461 
     84 H84       -71.2283   25.0677  -72.2002 H         1 UNK         0.3453 
     85 H85       -71.4125   26.5705  -73.0763 H         1 UNK         0.3453 
     86 H86       -73.4140   27.3511  -73.8821 H         1 UNK         0.2984 
     87 H87       -73.6988   29.9871  -75.4126 H         1 UNK         0.0554 
     88 H88       -71.9863   31.6095  -74.7270 H         1 UNK         0.0847 
     89 H89       -71.5205   30.8768  -76.2503 H         1 UNK         0.0847 
     90 H90       -70.7390   30.3722  -74.7520 H         1 UNK         0.0847 
     91 H91       -73.0355   28.2582  -76.6234 H         1 UNK         0.3141 
     92 H92       -70.6523   26.9471  -77.4544 H         1 UNK         0.0743 
     93 H93       -70.7498   24.7792  -75.2854 H         1 UNK         0.0784 
     94 H94       -70.0396   24.5865  -76.8870 H         1 UNK         0.0784 
     95 H95       -69.3259   25.7052  -75.7460 H         1 UNK         0.0784 
     96 H96       -73.2164   25.8238  -76.5441 H         1 UNK         0.3213 
     97 H97       -73.6675   24.1530  -79.7598 H         1 UNK         0.0855 
     98 H98       -74.0099   23.4828  -76.7911 H         1 UNK         0.0814 
     99 H99       -72.9644   22.6228  -77.9121 H         1 UNK         0.0814 
    100 H100      -74.7034   22.6029  -78.1510 H         1 UNK         0.0814 
    101 H101      -75.6424   25.0031  -77.9029 H         1 UNK         0.3105 
    102 H102      -76.5688   27.9987  -79.6402 H         1 UNK         0.0547 
    103 H103      -77.7544   26.1243  -80.7640 H         1 UNK         0.0837 
    104 H104      -77.9500   25.2907  -79.2311 H         1 UNK         0.0837 
    105 H105      -78.7639   26.8297  -79.5124 H         1 UNK         0.0837 
    106 H106      -77.5961   26.8526  -77.2564 H         1 UNK         0.3020 
    107 H107      -75.3704   28.3709  -74.9432 H         1 UNK         0.1245 
    108 H108      -77.8544   28.8462  -74.1834 H         1 UNK         0.0781 
    109 H109      -78.1634   29.1319  -75.8743 H         1 UNK         0.0781 
    110 H110      -78.8499   31.6119  -74.3483 H         1 UNK         0.0836 
    111 H111      -77.5833   32.6316  -73.7088 H         1 UNK         0.0836 
    112 H112      -77.5815   26.4943  -74.8744 H         1 UNK         0.3022 
    113 H113      -75.5063   23.6280  -74.8984 H         1 UNK         0.0747 
    114 H114      -76.8338   24.8052  -72.4070 H         1 UNK         0.0793 
    115 H115      -76.4685   23.1046  -72.6788 H         1 UNK         0.0793 
    116 H116      -75.1616   24.2668  -72.5327 H         1 UNK         0.0793 
    117 H117      -78.2993   24.0992  -74.3005 H         1 UNK         0.3047 
    118 H118      -79.4914   24.3193  -77.4266 H         1 UNK         0.0822 
    119 H119      -80.3926   22.0050  -77.7469 H         1 UNK         0.0807 
    120 H120      -79.0821   21.3590  -76.7582 H         1 UNK         0.0807 
    121 H121      -78.7274   22.1482  -78.2841 H         1 UNK         0.0807 
    122 H122      -80.7818   24.5626  -75.6883 H         1 UNK         0.2946 
    123 H123      -82.4960   23.2026  -73.9592 H         1 UNK         0.1144 
    124 H124      -82.1460   23.2905  -71.4717 H         1 UNK         0.0793 
    125 H125      -80.4130   23.0739  -71.7119 H         1 UNK         0.0793 
    126 H126      -81.5337   21.8039  -72.1762 H         1 UNK         0.0793 
    127 H127      -82.3645   25.4237  -73.8060 H         1 UNK         0.2896 
@<TRIPOS>BOND
     1    1    2 1    
     2    1   67 1    
     3    1   68 1    
     4    1   69 1    
     5    2    3 2    
     6    2    4 am   BACKBONE|DICT|INTERRES
     7    4    5 1    
     8    4   70 1    
     9    5    6 1    
    10    5   65 1    
    11    5   71 1    
    12    6    7 1    
    13    6   72 1    
    14    6   73 1    
    15    7    8 1    
    16    8    9 1    
    17    8   74 1    
    18    8   75 1    
    19    9   10 ar   
    20    9   14 ar   
    21   10   11 ar   
    22   10   76 1    
    23   11   12 ar   
    24   11   48 1    
    25   12   13 ar   
    26   12   77 1    
    27   13   14 ar   
    28   13   15 1    
    29   14   78 1    
    30   15   16 1    
    31   15   79 1    
    32   15   80 1    
    33   16   17 1    
    34   17   18 1    
    35   17   81 1    
    36   17   82 1    
    37   18   19 1    
    38   18   22 1    
    39   18   83 1    
    40   19   20 am   BACKBONE|DICT|INTERRES
    41   19   21 2    
    42   20   84 1    
    43   20   85 1    
    44   22   23 am   BACKBONE|DICT|INTERRES
    45   22   86 1    
    46   23   24 2    
    47   23   25 1    
    48   25   26 1    
    49   25   27 1    
    50   25   87 1    
    51   26   88 1    
    52   26   89 1    
    53   26   90 1    
    54   27   28 am   BACKBONE|DICT|INTERRES
    55   27   91 1    
    56   28   29 2    
    57   28   30 1    
    58   30   31 1    
    59   30   32 1    
    60   30   92 1    
    61   31   93 1    
    62   31   94 1    
    63   31   95 1    
    64   32   33 am   BACKBONE|DICT|INTERRES
    65   32   96 1    
    66   33   34 2    
    67   33   35 1    
    68   35   36 1    
    69   35   37 1    
    70   35   97 1    
    71   36   98 1    
    72   36   99 1    
    73   36  100 1    
    74   37   38 am   BACKBONE|DICT|INTERRES
    75   37  101 1    
    76   38   39 2    
    77   38   40 1    
    78   40   41 1    
    79   40   42 1    
    80   40  102 1    
    81   41  103 1    
    82   41  104 1    
    83   41  105 1    
    84   42   43 am   BACKBONE|DICT|INTERRES
    85   42  106 1    
    86   43   44 2    
    87   43   45 1    
    88   45   46 1    
    89   45   49 1    
    90   45  107 1    
    91   46   47 1    
    92   46  108 1    
    93   46  109 1    
    94   47   48 1    
    95   48  110 1    
    96   48  111 1    
    97   49   50 am   BACKBONE|DICT|INTERRES
    98   49  112 1    
    99   50   51 2    
   100   50   52 1    
   101   52   53 1    
   102   52   54 1    
   103   52  113 1    
   104   53  114 1    
   105   53  115 1    
   106   53  116 1    
   107   54   55 am   BACKBONE|DICT|INTERRES
   108   54  117 1    
   109   55   56 2    
   110   55   57 1    
   111   57   58 1    
   112   57   59 1    
   113   57  118 1    
   114   58  119 1    
   115   58  120 1    
   116   58  121 1    
   117   59   60 am   BACKBONE|DICT|INTERRES
   118   59  122 1    
   119   60   61 2    
   120   60   62 1    
   121   62   63 1    
   122   62   64 1    
   123   62  123 1    
   124   63  124 1    
   125   63  125 1    
   126   63  126 1    
   127   64   65 am   BACKBONE|DICT|INTERRES
   128   64  127 1    
   129   65   66 2    
@<TRIPOS>SUBSTRUCTURE
     1 UNK         1 GROUP             0       ****    0 ROOT    
