@<TRIPOS>MOLECULE
3R135
127   129    1
SMALL
USER_CHARGES


@<TRIPOS>ATOM
      1 CA        -84.6677   30.0184  -74.8680 C.3       0 UNK        -0.1998 
      2 C         -83.4025   29.5018  -75.5361 C.2       0 UNK         0.4909 
      3 O         -83.2464   29.6471  -76.7488 O.2       0 UNK        -0.5240 
      4 N         -82.4971   28.9007  -74.7537 N.am      1 UNK        -0.4739 
      5 CA        -81.2378   28.3096  -75.2249 C.3       1 UNK         0.0864 
      6 C6        -80.2237   28.1030  -74.0692 C.3       11 UNK        -0.0881 
      7 S7        -80.8990   27.2066  -72.6261 S.3       11 UNK        -0.2682 
      8 C8        -80.6282   28.4151  -71.2899 C.3       11 UNK         0.0289 
      9 C9        -79.1502   28.5703  -70.9577 C.ar      11 UNK        -0.0687 
     10 C10       -78.4688   27.5287  -70.3200 C.ar      11 UNK        -0.0823 
     11 C11       -77.1109   27.6557  -70.0163 C.ar      11 UNK        -0.0830 
     12 C12       -76.4513   28.8494  -70.3046 C.ar      11 UNK        -0.1021 
     13 C13       -77.1014   29.8774  -70.9892 C.ar      11 UNK        -0.0753 
     14 C14       -78.4584   29.7385  -71.3020 C.ar      11 UNK        -0.0933 
     15 C15       -76.3215   31.1140  -71.4177 C.3       11 UNK         0.0166 
     16 S16       -75.2559   30.7741  -72.8639 S.3       11 UNK        -0.2615 
     17 C17       -73.8850   29.8251  -72.1098 C.3       11 UNK        -0.0865 
     18 CA        -72.5120   30.0707  -72.7847 C.3       10 UNK         0.0862 
     19 C         -71.3459   29.4574  -71.9499 C.2       10 UNK         0.5551 
     20 N         -70.4546   28.6506  -72.5150 N.am      10 UNK        -0.7319 
     21 O         -71.2379   29.7330  -70.7575 O.2       10 UNK        -0.5018 
     22 N         -72.5166   29.6556  -74.1955 N.am      10 UNK        -0.4509 
     23 C         -71.7451   30.2081  -75.1396 C.2       10 UNK         0.4899 
     24 O         -71.0123   31.1793  -74.9411 O.2       10 UNK        -0.4839 
     25 CA        -71.7927   29.5569  -76.5340 C.3       9 UNK         0.0222 
     26 CB        -70.6688   30.0523  -77.4688 C.3       9 UNK        -0.1966 
     27 N         -71.8127   28.0897  -76.4924 N.am      9 UNK        -0.4218 
     28 C         -70.9020   27.2704  -75.9405 C.2       9 UNK         0.5020 
     29 O         -69.9171   27.6746  -75.3208 O.2       9 UNK        -0.5274 
     30 CA        -71.1134   25.7456  -76.0717 C.3       8 UNK         0.0270 
     31 CB        -71.1791   25.0847  -74.6837 C.3       8 UNK        -0.1976 
     32 N         -72.3121   25.3726  -76.8259 N.am      8 UNK        -0.4313 
     33 C         -72.4667   25.4630  -78.1536 C.2       8 UNK         0.5041 
     34 O         -71.5606   25.7583  -78.9328 O.2       8 UNK        -0.5577 
     35 CA        -73.8979   25.2674  -78.6872 C.3       7 UNK         0.0284 
     36 CB        -74.1756   23.7894  -79.0064 C.3       7 UNK        -0.1958 
     37 N         -74.9107   25.7865  -77.7571 N.am      7 UNK        -0.4454 
     38 C         -75.0596   27.0865  -77.4595 C.2       7 UNK         0.5089 
     39 O         -74.4051   27.9819  -77.9909 O.2       7 UNK        -0.5125 
     40 CA        -76.0676   27.4541  -76.3607 C.3       6 UNK         0.0408 
     41 CB        -77.4629   27.6426  -76.9704 C.3       6 UNK        -0.1791 
     42 N         -76.1079   26.4629  -75.2807 N.am      6 UNK        -0.4762 
     43 C         -75.1582   26.3464  -74.3348 C.2       6 UNK         0.5007 
     44 O         -74.1918   27.1069  -74.2514 O.2       6 UNK        -0.5032 
     45 CA        -75.2707   25.1428  -73.3637 C.3       5 UNK         0.0783 
     46 C46       -76.0960   25.4862  -72.0949 C.3       11 UNK        -0.0857 
     47 S47       -75.0541   25.9288  -70.6654 S.3       11 UNK        -0.2512 
     48 C48       -76.3188   26.4800  -69.4662 C.3       11 UNK         0.0225 
     49 N         -75.8158   23.9506  -74.0158 N.am      5 UNK        -0.4615 
     50 C         -75.2920   23.3244  -75.0752 C.2       4 UNK         0.5053 
     51 O         -74.2092   23.6287  -75.5714 O.2       4 UNK        -0.5105 
     52 CA        -76.1367   22.2095  -75.7233 C.3       4 UNK         0.0263 
     53 CB        -75.5309   20.8320  -75.4126 C.3       4 UNK        -0.1981 
     54 N         -77.5551   22.2155  -75.3342 N.am      4 UNK        -0.4224 
     55 C         -78.4201   23.2147  -75.5620 C.2       3 UNK         0.4895 
     56 O         -78.1195   24.2676  -76.1318 O.2       3 UNK        -0.5091 
     57 CA        -79.8248   23.0351  -74.9780 C.3       3 UNK         0.0250 
     58 CB        -79.8154   23.3164  -73.4617 C.3       3 UNK        -0.1996 
     59 N         -80.7437   23.9531  -75.6428 N.am      3 UNK        -0.4254 
     60 C         -82.0763   23.8432  -75.6754 C.2       2 UNK         0.5004 
     61 O         -82.6931   22.9094  -75.1582 O.2       2 UNK        -0.5226 
     62 CA        -82.8453   24.9830  -76.3756 C.3       2 UNK         0.0269 
     63 CB        -84.3718   24.7770  -76.3510 C.3       2 UNK        -0.1926 
     64 N         -82.5370   26.2822  -75.7714 N.am      2 UNK        -0.4687 
     65 C         -81.4418   27.0095  -76.0306 C.2       1 UNK         0.5165 
     66 O         -80.5972   26.6746  -76.8611 O.2       1 UNK        -0.5079 
     67 H67       -84.7615   31.0929  -75.0226 H         1 UNK         0.0900 
     68 H68       -84.6687   29.8291  -73.7946 H         1 UNK         0.0900 
     69 H69       -85.5437   29.5340  -75.2986 H         1 UNK         0.0900 
     70 H70       -82.6737   28.8019  -73.7636 H         1 UNK         0.2959 
     71 H71       -80.7885   29.0191  -75.9240 H         1 UNK         0.1079 
     72 H72       -79.3387   27.5622  -74.4072 H         1 UNK         0.0837 
     73 H73       -79.8569   29.0787  -73.7498 H         1 UNK         0.0837 
     74 H74       -81.1609   28.0792  -70.3991 H         1 UNK         0.0685 
     75 H75       -81.0710   29.3730  -71.5675 H         1 UNK         0.0685 
     76 H76       -78.9904   26.6079  -70.0968 H         1 UNK         0.1434 
     77 H77       -75.4064   28.9394  -70.0507 H         1 UNK         0.1329 
     78 H78       -78.9722   30.5341  -71.8239 H         1 UNK         0.1335 
     79 H79       -75.7198   31.4862  -70.5872 H         1 UNK         0.0680 
     80 H80       -77.0099   31.9196  -71.6773 H         1 UNK         0.0680 
     81 H81       -74.1361   28.7631  -72.1289 H         1 UNK         0.1032 
     82 H82       -73.8205   30.1101  -71.0590 H         1 UNK         0.1032 
     83 H83       -72.3424   31.1487  -72.7539 H         1 UNK         0.0461 
     84 H84       -69.7095   28.2760  -71.9503 H         1 UNK         0.3453 
     85 H85       -70.4861   28.4385  -73.5053 H         1 UNK         0.3453 
     86 H86       -73.0756   28.8368  -74.4137 H         1 UNK         0.2984 
     87 H87       -72.7423   29.8632  -76.9738 H         1 UNK         0.0554 
     88 H88       -70.7469   29.5986  -78.4569 H         1 UNK         0.0847 
     89 H89       -69.6803   29.8209  -77.0705 H         1 UNK         0.0847 
     90 H90       -70.7199   31.1332  -77.6055 H         1 UNK         0.0847 
     91 H91       -72.6051   27.6700  -76.9639 H         1 UNK         0.3141 
     92 H92       -70.2443   25.3464  -76.5983 H         1 UNK         0.0743 
     93 H93       -70.2598   25.2573  -74.1225 H         1 UNK         0.0784 
     94 H94       -72.0015   25.4811  -74.0880 H         1 UNK         0.0784 
     95 H95       -71.3117   24.0053  -74.7622 H         1 UNK         0.0784 
     96 H96       -73.0950   25.0149  -76.2837 H         1 UNK         0.3213 
     97 H97       -73.9819   25.8337  -79.6176 H         1 UNK         0.0855 
     98 H98       -74.0514   23.1496  -78.1333 H         1 UNK         0.0814 
     99 H99       -73.4870   23.4255  -79.7701 H         1 UNK         0.0814 
    100 H100      -75.1863   23.6467  -79.3890 H         1 UNK         0.0814 
    101 H101      -75.4769   25.1114  -77.2641 H         1 UNK         0.3105 
    102 H102      -75.7582   28.4127  -75.9376 H         1 UNK         0.0547 
    103 H103      -77.8847   26.7011  -77.3235 H         1 UNK         0.0837 
    104 H104      -78.1529   28.0761  -76.2506 H         1 UNK         0.0837 
    105 H105      -77.4301   28.3229  -77.8225 H         1 UNK         0.0837 
    106 H106      -76.8516   25.7740  -75.3239 H         1 UNK         0.3020 
    107 H107      -74.2511   24.8839  -73.0694 H         1 UNK         0.1245 
    108 H108      -76.6956   24.6323  -71.7745 H         1 UNK         0.0781 
    109 H109      -76.8168   26.2803  -72.2982 H         1 UNK         0.0781 
    110 H110      -75.8301   26.7736  -68.5362 H         1 UNK         0.0836 
    111 H111      -76.9750   25.6428  -69.2230 H         1 UNK         0.0836 
    112 H112      -76.7055   23.6223  -73.6739 H         1 UNK         0.3022 
    113 H113      -76.0942   22.3657  -76.8030 H         1 UNK         0.0747 
    114 H114      -76.0560   20.0375  -75.9431 H         1 UNK         0.0793 
    115 H115      -74.4851   20.7866  -75.7208 H         1 UNK         0.0793 
    116 H116      -75.5658   20.6063  -74.3460 H         1 UNK         0.0793 
    117 H117      -77.8854   21.3951  -74.8452 H         1 UNK         0.3047 
    118 H118      -80.1489   22.0089  -75.1644 H         1 UNK         0.0822 
    119 H119      -79.1388   22.6428  -72.9347 H         1 UNK         0.0807 
    120 H120      -80.8046   23.1787  -73.0246 H         1 UNK         0.0807 
    121 H121      -79.4987   24.3379  -73.2449 H         1 UNK         0.0807 
    122 H122      -80.2994   24.7370  -76.1143 H         1 UNK         0.2946 
    123 H123      -82.5276   24.9886  -77.4211 H         1 UNK         0.1144 
    124 H124      -84.6470   23.8347  -76.8269 H         1 UNK         0.0793 
    125 H125      -84.8876   25.5721  -76.8898 H         1 UNK         0.0793 
    126 H126      -84.7608   24.7547  -75.3322 H         1 UNK         0.0793 
    127 H127      -83.1614   26.6091  -75.0484 H         1 UNK         0.2896 
@<TRIPOS>BOND
     1    1    2 1    
     2    1   67 1    
     3    1   68 1    
     4    1   69 1    
     5    2    3 2    
     6    2    4 am   BACKBONE|DICT|INTERRES
     7    4    5 1    
     8    4   70 1    
     9    5    6 1    
    10    5   65 1    
    11    5   71 1    
    12    6    7 1    
    13    6   72 1    
    14    6   73 1    
    15    7    8 1    
    16    8    9 1    
    17    8   74 1    
    18    8   75 1    
    19    9   10 ar   
    20    9   14 ar   
    21   10   11 ar   
    22   10   76 1    
    23   11   12 ar   
    24   11   48 1    
    25   12   13 ar   
    26   12   77 1    
    27   13   14 ar   
    28   13   15 1    
    29   14   78 1    
    30   15   16 1    
    31   15   79 1    
    32   15   80 1    
    33   16   17 1    
    34   17   18 1    
    35   17   81 1    
    36   17   82 1    
    37   18   19 1    
    38   18   22 1    
    39   18   83 1    
    40   19   20 am   BACKBONE|DICT|INTERRES
    41   19   21 2    
    42   20   84 1    
    43   20   85 1    
    44   22   23 am   BACKBONE|DICT|INTERRES
    45   22   86 1    
    46   23   24 2    
    47   23   25 1    
    48   25   26 1    
    49   25   27 1    
    50   25   87 1    
    51   26   88 1    
    52   26   89 1    
    53   26   90 1    
    54   27   28 am   BACKBONE|DICT|INTERRES
    55   27   91 1    
    56   28   29 2    
    57   28   30 1    
    58   30   31 1    
    59   30   32 1    
    60   30   92 1    
    61   31   93 1    
    62   31   94 1    
    63   31   95 1    
    64   32   33 am   BACKBONE|DICT|INTERRES
    65   32   96 1    
    66   33   34 2    
    67   33   35 1    
    68   35   36 1    
    69   35   37 1    
    70   35   97 1    
    71   36   98 1    
    72   36   99 1    
    73   36  100 1    
    74   37   38 am   BACKBONE|DICT|INTERRES
    75   37  101 1    
    76   38   39 2    
    77   38   40 1    
    78   40   41 1    
    79   40   42 1    
    80   40  102 1    
    81   41  103 1    
    82   41  104 1    
    83   41  105 1    
    84   42   43 am   BACKBONE|DICT|INTERRES
    85   42  106 1    
    86   43   44 2    
    87   43   45 1    
    88   45   46 1    
    89   45   49 1    
    90   45  107 1    
    91   46   47 1    
    92   46  108 1    
    93   46  109 1    
    94   47   48 1    
    95   48  110 1    
    96   48  111 1    
    97   49   50 am   BACKBONE|DICT|INTERRES
    98   49  112 1    
    99   50   51 2    
   100   50   52 1    
   101   52   53 1    
   102   52   54 1    
   103   52  113 1    
   104   53  114 1    
   105   53  115 1    
   106   53  116 1    
   107   54   55 am   BACKBONE|DICT|INTERRES
   108   54  117 1    
   109   55   56 2    
   110   55   57 1    
   111   57   58 1    
   112   57   59 1    
   113   57  118 1    
   114   58  119 1    
   115   58  120 1    
   116   58  121 1    
   117   59   60 am   BACKBONE|DICT|INTERRES
   118   59  122 1    
   119   60   61 2    
   120   60   62 1    
   121   62   63 1    
   122   62   64 1    
   123   62  123 1    
   124   63  124 1    
   125   63  125 1    
   126   63  126 1    
   127   64   65 am   BACKBONE|DICT|INTERRES
   128   64  127 1    
   129   65   66 2    
@<TRIPOS>SUBSTRUCTURE
     1 UNK         1 GROUP             0       ****    0 ROOT    
