@<TRIPOS>MOLECULE
3R135
127   129    1
SMALL
USER_CHARGES


@<TRIPOS>ATOM
      1 CA        -80.5005   23.3899  -69.3321 C.3       0 UNK        -0.1998 
      2 C         -81.2069   23.9812  -70.5429 C.2       0 UNK         0.4909 
      3 O         -82.2270   23.4458  -70.9793 O.2       0 UNK        -0.5240 
      4 N         -80.6768   25.0865  -71.0804 N.am      1 UNK        -0.4739 
      5 CA        -81.1838   25.7581  -72.2835 C.3       1 UNK         0.0864 
      6 C6        -80.6783   27.2191  -72.3900 C.3       11 UNK        -0.0881 
      7 S7        -81.1144   28.2275  -70.9312 S.3       11 UNK        -0.2682 
      8 C8        -79.4630   28.7250  -70.3200 C.3       11 UNK         0.0289 
      9 C9        -78.7117   29.7621  -71.1627 C.ar      11 UNK        -0.0687 
     10 C10       -79.1891   30.2437  -72.3894 C.ar      11 UNK        -0.0823 
     11 C11       -78.4578   31.1734  -73.1322 C.ar      11 UNK        -0.0830 
     12 C12       -77.2499   31.6583  -72.6269 C.ar      11 UNK        -0.1021 
     13 C13       -76.7637   31.2025  -71.3986 C.ar      11 UNK        -0.0753 
     14 C14       -77.4928   30.2501  -70.6792 C.ar      11 UNK        -0.0933 
     15 C15       -75.4614   31.7589  -70.8423 C.3       11 UNK         0.0166 
     16 S16       -74.0130   31.1515  -71.7581 S.3       11 UNK        -0.2615 
     17 C17       -73.9551   29.4084  -71.2231 C.3       11 UNK        -0.0865 
     18 CA        -72.7216   28.6677  -71.7997 C.3       10 UNK         0.0862 
     19 C         -72.5641   27.2712  -71.1472 C.2       10 UNK         0.5551 
     20 N         -71.7965   27.1778  -70.0688 N.am      10 UNK        -0.7319 
     21 O         -73.1551   26.2824  -71.5783 O.2       10 UNK        -0.5018 
     22 N         -72.8200   28.5364  -73.2566 N.am      10 UNK        -0.4509 
     23 C         -72.0240   29.1205  -74.1571 C.2       10 UNK         0.4899 
     24 O         -71.0916   29.8743  -73.8709 O.2       10 UNK        -0.4839 
     25 CA        -72.3291   28.7900  -75.6318 C.3       9 UNK         0.0222 
     26 CB        -71.3114   29.4019  -76.6176 C.3       9 UNK        -0.1966 
     27 N         -72.4771   27.3484  -75.8647 N.am      9 UNK        -0.4218 
     28 C         -71.5704   26.3886  -75.6217 C.2       9 UNK         0.5020 
     29 O         -70.4314   26.5966  -75.2010 O.2       9 UNK        -0.5274 
     30 CA        -72.0080   24.9383  -75.8851 C.3       8 UNK         0.0270 
     31 CB        -72.5319   24.2999  -74.5906 C.3       8 UNK        -0.1976 
     32 N         -73.0180   24.8170  -76.9421 N.am      8 UNK        -0.4313 
     33 C         -72.7403   24.9340  -78.2481 C.2       8 UNK         0.5041 
     34 O         -71.6226   25.2083  -78.6875 O.2       8 UNK        -0.5577 
     35 CA        -73.8880   24.6935  -79.2343 C.3       7 UNK         0.0284 
     36 CB        -74.2695   23.2031  -79.2853 C.3       7 UNK        -0.1958 
     37 N         -75.0673   25.4952  -78.8979 N.am      7 UNK        -0.4454 
     38 C         -75.5811   26.4392  -79.6968 C.2       7 UNK         0.5089 
     39 O         -75.0748   26.7829  -80.7660 O.2       7 UNK        -0.5125 
     40 CA        -76.9031   27.0981  -79.2716 C.3       6 UNK         0.0408 
     41 CB        -78.0969   26.3279  -79.8583 C.3       6 UNK        -0.1791 
     42 N         -77.0924   27.2491  -77.8283 N.am      6 UNK        -0.4762 
     43 C         -76.4423   28.1439  -77.0696 C.2       6 UNK         0.5007 
     44 O         -75.4605   28.7813  -77.4496 O.2       6 UNK        -0.5032 
     45 CA        -77.0085   28.3762  -75.6560 C.3       5 UNK         0.0783 
     46 C46       -78.3481   29.1569  -75.7048 C.3       11 UNK        -0.0857 
     47 S47       -78.0707   30.9541  -75.8846 S.3       11 UNK        -0.2512 
     48 C48       -78.9859   31.6601  -74.4747 C.3       11 UNK         0.0225 
     49 N         -77.1464   27.0973  -74.9624 N.am      5 UNK        -0.4615 
     50 C         -76.1587   26.5216  -74.2654 C.2       4 UNK         0.5053 
     51 O         -75.0679   27.0519  -74.0673 O.2       4 UNK        -0.5105 
     52 CA        -76.4064   25.0923  -73.7505 C.3       4 UNK         0.0263 
     53 CB        -77.0427   25.1170  -72.3533 C.3       4 UNK        -0.1981 
     54 N         -77.2191   24.2939  -74.6740 N.am      4 UNK        -0.4224 
     55 C         -76.8270   23.9839  -75.9207 C.2       3 UNK         0.4895 
     56 O         -75.7208   24.2789  -76.3750 O.2       3 UNK        -0.5091 
     57 CA        -77.8303   23.2776  -76.8485 C.3       3 UNK         0.0250 
     58 CB        -77.5699   21.7637  -76.8583 C.3       3 UNK        -0.1996 
     59 N         -79.2386   23.5252  -76.5306 N.am      3 UNK        -0.4254 
     60 C         -79.8393   24.7223  -76.4629 C.2       2 UNK         0.5004 
     61 O         -79.2646   25.7930  -76.6726 O.2       2 UNK        -0.5226 
     62 CA        -81.3157   24.7377  -76.0195 C.3       2 UNK         0.0269 
     63 CB        -82.0081   23.3571  -76.0867 C.3       2 UNK        -0.1926 
     64 N         -81.4814   25.3156  -74.6781 N.am      2 UNK        -0.4687 
     65 C         -80.8246   24.9660  -73.5598 C.2       1 UNK         0.5165 
     66 O         -79.9489   24.0955  -73.5227 O.2       1 UNK        -0.5079 
     67 H67       -81.1772   23.3629  -68.4786 H         1 UNK         0.0900 
     68 H68       -80.1803   22.3706  -69.5465 H         1 UNK         0.0900 
     69 H69       -79.6214   23.9687  -69.0499 H         1 UNK         0.0900 
     70 H70       -79.8373   25.4781  -70.6816 H         1 UNK         0.2959 
     71 H71       -82.2741   25.7809  -72.2158 H         1 UNK         0.1079 
     72 H72       -79.5994   27.2495  -72.5475 H         1 UNK         0.0837 
     73 H73       -81.1172   27.7101  -73.2603 H         1 UNK         0.0837 
     74 H74       -79.5925   29.1284  -69.3147 H         1 UNK         0.0685 
     75 H75       -78.8424   27.8340  -70.2147 H         1 UNK         0.0685 
     76 H76       -80.1311   29.8994  -72.7875 H         1 UNK         0.1434 
     77 H77       -76.6839   32.3864  -73.1922 H         1 UNK         0.1329 
     78 H78       -77.1145   29.8935  -69.7307 H         1 UNK         0.1335 
     79 H79       -75.4837   32.8478  -70.9053 H         1 UNK         0.0680 
     80 H80       -75.3510   31.5177  -69.7839 H         1 UNK         0.0680 
     81 H81       -73.9388   29.3910  -70.1316 H         1 UNK         0.1032 
     82 H82       -74.8776   28.9092  -71.5278 H         1 UNK         0.1032 
     83 H83       -71.8298   29.2440  -71.5450 H         1 UNK         0.0461 
     84 H84       -71.3128   27.9820  -69.6979 H         1 UNK         0.3453 
     85 H85       -71.6923   26.2809  -69.6207 H         1 UNK         0.3453 
     86 H86       -73.5526   27.9031  -73.5767 H         1 UNK         0.2984 
     87 H87       -73.3012   29.2358  -75.8452 H         1 UNK         0.0554 
     88 H88       -71.2773   30.4874  -76.5188 H         1 UNK         0.0847 
     89 H89       -71.5788   29.1792  -77.6505 H         1 UNK         0.0847 
     90 H90       -70.3021   29.0278  -76.4438 H         1 UNK         0.0847 
     91 H91       -73.3922   27.0519  -76.1732 H         1 UNK         0.3141 
     92 H92       -71.1248   24.3773  -76.1990 H         1 UNK         0.0743 
     93 H93       -73.3122   24.9084  -74.1375 H         1 UNK         0.0784 
     94 H94       -72.9311   23.3001  -74.7620 H         1 UNK         0.0784 
     95 H95       -71.7329   24.2120  -73.8533 H         1 UNK         0.0784 
     96 H96       -73.9673   24.5757  -76.6587 H         1 UNK         0.3213 
     97 H97       -73.5125   24.9620  -80.2241 H         1 UNK         0.0855 
     98 H98       -74.6384   22.8377  -78.3272 H         1 UNK         0.0814 
     99 H99       -73.4081   22.5909  -79.5557 H         1 UNK         0.0814 
    100 H100      -75.0429   23.0199  -80.0313 H         1 UNK         0.0814 
    101 H101      -75.5220   25.2865  -78.0147 H         1 UNK         0.3105 
    102 H102      -76.9145   28.0998  -79.7069 H         1 UNK         0.0547 
    103 H103      -78.0111   26.2404  -80.9423 H         1 UNK         0.0837 
    104 H104      -78.1664   25.3180  -79.4553 H         1 UNK         0.0837 
    105 H105      -79.0385   26.8359  -79.6493 H         1 UNK         0.0837 
    106 H106      -77.8825   26.7504  -77.4223 H         1 UNK         0.3020 
    107 H107      -76.2850   28.9858  -75.1077 H         1 UNK         0.1245 
    108 H108      -78.9145   28.9748  -74.7926 H         1 UNK         0.0781 
    109 H109      -78.9960   28.8113  -76.5129 H         1 UNK         0.0781 
    110 H110      -80.0459   31.4255  -74.5850 H         1 UNK         0.0836 
    111 H111      -78.9120   32.7477  -74.5169 H         1 UNK         0.0836 
    112 H112      -77.9831   26.5638  -75.1641 H         1 UNK         0.3022 
    113 H113      -75.4413   24.5952  -73.6582 H         1 UNK         0.0747 
    114 H114      -77.1986   24.1089  -71.9690 H         1 UNK         0.0793 
    115 H115      -76.3981   25.6401  -71.6451 H         1 UNK         0.0793 
    116 H116      -78.0032   25.6266  -72.3564 H         1 UNK         0.0793 
    117 H117      -78.1546   24.0409  -74.3663 H         1 UNK         0.3047 
    118 H118      -77.6529   23.6567  -77.8559 H         1 UNK         0.0822 
    119 H119      -78.1947   21.2574  -77.5943 H         1 UNK         0.0807 
    120 H120      -77.7654   21.3144  -75.8837 H         1 UNK         0.0807 
    121 H121      -76.5320   21.5460  -77.1147 H         1 UNK         0.0807 
    122 H122      -79.7916   22.7139  -76.2951 H         1 UNK         0.2946 
    123 H123      -81.8284   25.4008  -76.7186 H         1 UNK         0.1144 
    124 H124      -83.0742   23.4484  -75.8783 H         1 UNK         0.0793 
    125 H125      -81.5967   22.6500  -75.3652 H         1 UNK         0.0793 
    126 H126      -81.9181   22.9153  -77.0803 H         1 UNK         0.0793 
    127 H127      -82.1552   26.0667  -74.6184 H         1 UNK         0.2896 
@<TRIPOS>BOND
     1    1    2 1    
     2    1   67 1    
     3    1   68 1    
     4    1   69 1    
     5    2    3 2    
     6    2    4 am   BACKBONE|DICT|INTERRES
     7    4    5 1    
     8    4   70 1    
     9    5    6 1    
    10    5   65 1    
    11    5   71 1    
    12    6    7 1    
    13    6   72 1    
    14    6   73 1    
    15    7    8 1    
    16    8    9 1    
    17    8   74 1    
    18    8   75 1    
    19    9   10 ar   
    20    9   14 ar   
    21   10   11 ar   
    22   10   76 1    
    23   11   12 ar   
    24   11   48 1    
    25   12   13 ar   
    26   12   77 1    
    27   13   14 ar   
    28   13   15 1    
    29   14   78 1    
    30   15   16 1    
    31   15   79 1    
    32   15   80 1    
    33   16   17 1    
    34   17   18 1    
    35   17   81 1    
    36   17   82 1    
    37   18   19 1    
    38   18   22 1    
    39   18   83 1    
    40   19   20 am   BACKBONE|DICT|INTERRES
    41   19   21 2    
    42   20   84 1    
    43   20   85 1    
    44   22   23 am   BACKBONE|DICT|INTERRES
    45   22   86 1    
    46   23   24 2    
    47   23   25 1    
    48   25   26 1    
    49   25   27 1    
    50   25   87 1    
    51   26   88 1    
    52   26   89 1    
    53   26   90 1    
    54   27   28 am   BACKBONE|DICT|INTERRES
    55   27   91 1    
    56   28   29 2    
    57   28   30 1    
    58   30   31 1    
    59   30   32 1    
    60   30   92 1    
    61   31   93 1    
    62   31   94 1    
    63   31   95 1    
    64   32   33 am   BACKBONE|DICT|INTERRES
    65   32   96 1    
    66   33   34 2    
    67   33   35 1    
    68   35   36 1    
    69   35   37 1    
    70   35   97 1    
    71   36   98 1    
    72   36   99 1    
    73   36  100 1    
    74   37   38 am   BACKBONE|DICT|INTERRES
    75   37  101 1    
    76   38   39 2    
    77   38   40 1    
    78   40   41 1    
    79   40   42 1    
    80   40  102 1    
    81   41  103 1    
    82   41  104 1    
    83   41  105 1    
    84   42   43 am   BACKBONE|DICT|INTERRES
    85   42  106 1    
    86   43   44 2    
    87   43   45 1    
    88   45   46 1    
    89   45   49 1    
    90   45  107 1    
    91   46   47 1    
    92   46  108 1    
    93   46  109 1    
    94   47   48 1    
    95   48  110 1    
    96   48  111 1    
    97   49   50 am   BACKBONE|DICT|INTERRES
    98   49  112 1    
    99   50   51 2    
   100   50   52 1    
   101   52   53 1    
   102   52   54 1    
   103   52  113 1    
   104   53  114 1    
   105   53  115 1    
   106   53  116 1    
   107   54   55 am   BACKBONE|DICT|INTERRES
   108   54  117 1    
   109   55   56 2    
   110   55   57 1    
   111   57   58 1    
   112   57   59 1    
   113   57  118 1    
   114   58  119 1    
   115   58  120 1    
   116   58  121 1    
   117   59   60 am   BACKBONE|DICT|INTERRES
   118   59  122 1    
   119   60   61 2    
   120   60   62 1    
   121   62   63 1    
   122   62   64 1    
   123   62  123 1    
   124   63  124 1    
   125   63  125 1    
   126   63  126 1    
   127   64   65 am   BACKBONE|DICT|INTERRES
   128   64  127 1    
   129   65   66 2    
@<TRIPOS>SUBSTRUCTURE
     1 UNK         1 GROUP             0       ****    0 ROOT    
