@<TRIPOS>MOLECULE
3R135
127   129    1
SMALL
USER_CHARGES


@<TRIPOS>ATOM
      1 CA        -79.4095   30.0501  -78.9113 C.3       0 UNK        -0.1998 
      2 C         -79.2101   29.0899  -77.7485 C.2       0 UNK         0.4909 
      3 O         -78.6565   28.0072  -77.9404 O.2       0 UNK        -0.5240 
      4 N         -79.6465   29.4846  -76.5450 N.am      1 UNK        -0.4739 
      5 CA        -79.5339   28.6898  -75.3175 C.3       1 UNK         0.0864 
      6 C6        -79.7144   29.5507  -74.0383 C.3       11 UNK        -0.0881 
      7 S7        -78.5557   30.9535  -73.8972 S.3       11 UNK        -0.2682 
      8 C8        -76.9256   30.1410  -73.9025 C.3       11 UNK         0.0289 
      9 C9        -76.7179   29.1971  -72.7261 C.ar      11 UNK        -0.0687 
     10 C10       -76.8407   27.8132  -72.8937 C.ar      11 UNK        -0.0823 
     11 C11       -76.6082   26.9437  -71.8238 C.ar      11 UNK        -0.0830 
     12 C12       -76.2338   27.4687  -70.5835 C.ar      11 UNK        -0.1021 
     13 C13       -76.0970   28.8485  -70.4054 C.ar      11 UNK        -0.0753 
     14 C14       -76.3528   29.7081  -71.4774 C.ar      11 UNK        -0.0933 
     15 C15       -75.6796   29.4002  -69.0504 C.3       11 UNK         0.0166 
     16 S16       -73.8675   29.4419  -68.8627 S.3       11 UNK        -0.2615 
     17 C17       -73.4505   31.0749  -69.5742 C.3       11 UNK        -0.0865 
     18 CA        -72.1410   31.1049  -70.4167 C.3       10 UNK         0.0862 
     19 C         -70.8575   30.8821  -69.5724 C.2       10 UNK         0.5551 
     20 N         -70.5692   31.7721  -68.6324 N.am      10 UNK        -0.7319 
     21 O         -70.1171   29.9172  -69.7623 O.2       10 UNK        -0.5018 
     22 N         -72.1710   30.2050  -71.5750 N.am      10 UNK        -0.4509 
     23 C         -72.9241   30.3630  -72.6660 C.2       10 UNK         0.4899 
     24 O         -73.7228   31.2917  -72.8093 O.2       10 UNK        -0.4839 
     25 CA        -72.7375   29.3032  -73.7728 C.3       9 UNK         0.0222 
     26 CB        -73.0429   27.8861  -73.2550 C.3       9 UNK        -0.1966 
     27 N         -73.5760   29.5634  -74.9451 N.am      9 UNK        -0.4218 
     28 C         -73.3917   30.5407  -75.8400 C.2       9 UNK         0.5020 
     29 O         -72.4017   31.2759  -75.8583 O.2       9 UNK        -0.5274 
     30 CA        -74.4984   30.7045  -76.9030 C.3       8 UNK         0.0270 
     31 CB        -74.3378   31.9937  -77.7306 C.3       8 UNK        -0.1976 
     32 N         -74.5691   29.5624  -77.8169 N.am      8 UNK        -0.4313 
     33 C         -75.0396   28.3459  -77.5179 C.2       8 UNK         0.5041 
     34 O         -75.4793   28.0251  -76.4077 O.2       8 UNK        -0.5577 
     35 CA        -74.9707   27.3062  -78.6401 C.3       7 UNK         0.0284 
     36 CB        -73.5312   26.7808  -78.8086 C.3       7 UNK        -0.1958 
     37 N         -75.8649   26.2124  -78.2901 N.am      7 UNK        -0.4454 
     38 C         -76.3181   25.2549  -79.1048 C.2       7 UNK         0.5089 
     39 O         -76.0588   25.2046  -80.3089 O.2       7 UNK        -0.5125 
     40 CA        -77.1999   24.1658  -78.4560 C.3       6 UNK         0.0408 
     41 CB        -77.2260   22.8548  -79.2688 C.3       6 UNK        -0.1791 
     42 N         -76.8555   23.8987  -77.0526 N.am      6 UNK        -0.4762 
     43 C         -75.6700   23.4944  -76.5626 C.2       6 UNK         0.5007 
     44 O         -74.6876   23.2276  -77.2552 O.2       6 UNK        -0.5032 
     45 CA        -75.5675   23.3763  -75.0338 C.3       5 UNK         0.0783 
     46 C46       -75.4080   24.7792  -74.3963 C.3       11 UNK        -0.0857 
     47 S47       -75.1987   24.6873  -72.5865 S.3       11 UNK        -0.2512 
     48 C48       -76.7485   25.4379  -71.9986 C.3       11 UNK         0.0225 
     49 N         -76.7348   22.6493  -74.5283 N.am      5 UNK        -0.4615 
     50 C         -76.7267   21.3621  -74.1570 C.2       4 UNK         0.5053 
     51 O         -75.7123   20.6656  -74.1090 O.2       4 UNK        -0.5105 
     52 CA        -78.0828   20.7310  -73.7852 C.3       4 UNK         0.0263 
     53 CB        -78.3359   20.8620  -72.2745 C.3       4 UNK        -0.1981 
     54 N         -79.2089   21.3185  -74.5145 N.am      4 UNK        -0.4224 
     55 C         -79.3844   21.2534  -75.8426 C.2       3 UNK         0.4895 
     56 O         -78.6947   20.5584  -76.5886 O.2       3 UNK        -0.5091 
     57 CA        -80.4959   22.1301  -76.4536 C.3       3 UNK         0.0250 
     58 CB        -81.6944   21.2624  -76.8715 C.3       3 UNK        -0.1996 
     59 N         -80.9727   23.2257  -75.5964 N.am      3 UNK        -0.4254 
     60 C         -80.2255   24.2369  -75.1329 C.2       2 UNK         0.5004 
     61 O         -79.0062   24.3293  -75.3062 O.2       2 UNK        -0.5226 
     62 CA        -80.9456   25.2785  -74.2680 C.3       2 UNK         0.0269 
     63 CB        -80.9570   24.8311  -72.7968 C.3       2 UNK        -0.1926 
     64 N         -80.2511   26.5601  -74.3675 N.am      2 UNK        -0.4687 
     65 C         -80.4996   27.4866  -75.3012 C.2       1 UNK         0.5165 
     66 O         -81.4467   27.4250  -76.0905 O.2       1 UNK        -0.5079 
     67 H67       -80.0201   29.5820  -79.6829 H         1 UNK         0.0900 
     68 H68       -78.4466   30.3115  -79.3494 H         1 UNK         0.0900 
     69 H69       -79.9021   30.9711  -78.6001 H         1 UNK         0.0900 
     70 H70       -80.1066   30.3779  -76.4462 H         1 UNK         0.2959 
     71 H71       -78.5323   28.2613  -75.3195 H         1 UNK         0.1079 
     72 H72       -80.7278   29.9549  -73.9987 H         1 UNK         0.0837 
     73 H73       -79.6032   28.9454  -73.1367 H         1 UNK         0.0837 
     74 H74       -76.7877   29.6159  -74.8453 H         1 UNK         0.0685 
     75 H75       -76.1590   30.9162  -73.8804 H         1 UNK         0.0685 
     76 H76       -77.0897   27.4090  -73.8625 H         1 UNK         0.1434 
     77 H77       -76.0364   26.8013  -69.7556 H         1 UNK         0.1329 
     78 H78       -76.2481   30.7766  -71.3510 H         1 UNK         0.1335 
     79 H79       -76.0952   28.7731  -68.2601 H         1 UNK         0.0680 
     80 H80       -76.0966   30.3961  -68.8927 H         1 UNK         0.0680 
     81 H81       -73.3945   31.7958  -68.7573 H         1 UNK         0.1032 
     82 H82       -74.2788   31.4186  -70.1929 H         1 UNK         0.1032 
     83 H83       -72.0376   32.1129  -70.8235 H         1 UNK         0.0461 
     84 H84       -71.1580   32.5741  -68.4713 H         1 UNK         0.3453 
     85 H85       -69.7389   31.6423  -68.0754 H         1 UNK         0.3453 
     86 H86       -71.5158   29.4366  -71.5140 H         1 UNK         0.2984 
     87 H87       -71.6936   29.3356  -74.0909 H         1 UNK         0.0554 
     88 H88       -72.9604   27.1441  -74.0491 H         1 UNK         0.0847 
     89 H89       -74.0469   27.8188  -72.8385 H         1 UNK         0.0847 
     90 H90       -72.3495   27.5879  -72.4683 H         1 UNK         0.0847 
     91 H91       -74.3889   28.9676  -75.0745 H         1 UNK         0.3141 
     92 H92       -75.4497   30.7791  -76.3746 H         1 UNK         0.0743 
     93 H93       -75.1730   32.1313  -78.4178 H         1 UNK         0.0784 
     94 H94       -74.3071   32.8709  -77.0827 H         1 UNK         0.0784 
     95 H95       -73.4175   31.9885  -78.3161 H         1 UNK         0.0784 
     96 H96       -74.1906   29.7142  -78.7410 H         1 UNK         0.3213 
     97 H97       -75.3174   27.7649  -79.5685 H         1 UNK         0.0855 
     98 H98       -73.1715   26.3024  -77.8965 H         1 UNK         0.0814 
     99 H99       -72.8390   27.5883  -79.0499 H         1 UNK         0.0814 
    100 H100      -73.4636   26.0505  -79.6150 H         1 UNK         0.0814 
    101 H101      -76.1765   26.2401  -77.3265 H         1 UNK         0.3105 
    102 H102      -78.2142   24.5675  -78.4438 H         1 UNK         0.0547 
    103 H103      -77.6166   23.0238  -80.2728 H         1 UNK         0.0837 
    104 H104      -76.2291   22.4265  -79.3759 H         1 UNK         0.0837 
    105 H105      -77.8626   22.1068  -78.7968 H         1 UNK         0.0837 
    106 H106      -77.6041   24.0971  -76.3894 H         1 UNK         0.3020 
    107 H107      -74.6569   22.8121  -74.8183 H         1 UNK         0.1245 
    108 H108      -76.2593   25.4144  -74.6432 H         1 UNK         0.0781 
    109 H109      -74.5306   25.2847  -74.8042 H         1 UNK         0.0781 
    110 H110      -77.0161   24.9789  -71.0456 H         1 UNK         0.0836 
    111 H111      -77.5649   25.2020  -72.6822 H         1 UNK         0.0836 
    112 H112      -77.6208   23.1398  -74.5806 H         1 UNK         0.3022 
    113 H113      -78.0353   19.6697  -74.0380 H         1 UNK         0.0747 
    114 H114      -79.2574   20.3593  -71.9802 H         1 UNK         0.0793 
    115 H115      -77.5246   20.4082  -71.7034 H         1 UNK         0.0793 
    116 H116      -78.4068   21.9058  -71.9651 H         1 UNK         0.0793 
    117 H117      -79.8431   21.8955  -73.9829 H         1 UNK         0.3047 
    118 H118      -80.0749   22.5851  -77.3527 H         1 UNK         0.0822 
    119 H119      -82.4427   21.8479  -77.4061 H         1 UNK         0.0807 
    120 H120      -82.1788   20.8013  -76.0098 H         1 UNK         0.0807 
    121 H121      -81.3816   20.4574  -77.5384 H         1 UNK         0.0807 
    122 H122      -81.9590   23.2167  -75.3776 H         1 UNK         0.2946 
    123 H123      -81.9758   25.3864  -74.6161 H         1 UNK         0.1144 
    124 H124      -81.4407   25.5739  -72.1620 H         1 UNK         0.0793 
    125 H125      -79.9505   24.6672  -72.4106 H         1 UNK         0.0793 
    126 H126      -81.5083   23.8978  -72.6745 H         1 UNK         0.0793 
    127 H127      -79.4479   26.6711  -73.7678 H         1 UNK         0.2896 
@<TRIPOS>BOND
     1    1    2 1    
     2    1   67 1    
     3    1   68 1    
     4    1   69 1    
     5    2    3 2    
     6    2    4 am   BACKBONE|DICT|INTERRES
     7    4    5 1    
     8    4   70 1    
     9    5    6 1    
    10    5   65 1    
    11    5   71 1    
    12    6    7 1    
    13    6   72 1    
    14    6   73 1    
    15    7    8 1    
    16    8    9 1    
    17    8   74 1    
    18    8   75 1    
    19    9   10 ar   
    20    9   14 ar   
    21   10   11 ar   
    22   10   76 1    
    23   11   12 ar   
    24   11   48 1    
    25   12   13 ar   
    26   12   77 1    
    27   13   14 ar   
    28   13   15 1    
    29   14   78 1    
    30   15   16 1    
    31   15   79 1    
    32   15   80 1    
    33   16   17 1    
    34   17   18 1    
    35   17   81 1    
    36   17   82 1    
    37   18   19 1    
    38   18   22 1    
    39   18   83 1    
    40   19   20 am   BACKBONE|DICT|INTERRES
    41   19   21 2    
    42   20   84 1    
    43   20   85 1    
    44   22   23 am   BACKBONE|DICT|INTERRES
    45   22   86 1    
    46   23   24 2    
    47   23   25 1    
    48   25   26 1    
    49   25   27 1    
    50   25   87 1    
    51   26   88 1    
    52   26   89 1    
    53   26   90 1    
    54   27   28 am   BACKBONE|DICT|INTERRES
    55   27   91 1    
    56   28   29 2    
    57   28   30 1    
    58   30   31 1    
    59   30   32 1    
    60   30   92 1    
    61   31   93 1    
    62   31   94 1    
    63   31   95 1    
    64   32   33 am   BACKBONE|DICT|INTERRES
    65   32   96 1    
    66   33   34 2    
    67   33   35 1    
    68   35   36 1    
    69   35   37 1    
    70   35   97 1    
    71   36   98 1    
    72   36   99 1    
    73   36  100 1    
    74   37   38 am   BACKBONE|DICT|INTERRES
    75   37  101 1    
    76   38   39 2    
    77   38   40 1    
    78   40   41 1    
    79   40   42 1    
    80   40  102 1    
    81   41  103 1    
    82   41  104 1    
    83   41  105 1    
    84   42   43 am   BACKBONE|DICT|INTERRES
    85   42  106 1    
    86   43   44 2    
    87   43   45 1    
    88   45   46 1    
    89   45   49 1    
    90   45  107 1    
    91   46   47 1    
    92   46  108 1    
    93   46  109 1    
    94   47   48 1    
    95   48  110 1    
    96   48  111 1    
    97   49   50 am   BACKBONE|DICT|INTERRES
    98   49  112 1    
    99   50   51 2    
   100   50   52 1    
   101   52   53 1    
   102   52   54 1    
   103   52  113 1    
   104   53  114 1    
   105   53  115 1    
   106   53  116 1    
   107   54   55 am   BACKBONE|DICT|INTERRES
   108   54  117 1    
   109   55   56 2    
   110   55   57 1    
   111   57   58 1    
   112   57   59 1    
   113   57  118 1    
   114   58  119 1    
   115   58  120 1    
   116   58  121 1    
   117   59   60 am   BACKBONE|DICT|INTERRES
   118   59  122 1    
   119   60   61 2    
   120   60   62 1    
   121   62   63 1    
   122   62   64 1    
   123   62  123 1    
   124   63  124 1    
   125   63  125 1    
   126   63  126 1    
   127   64   65 am   BACKBONE|DICT|INTERRES
   128   64  127 1    
   129   65   66 2    
@<TRIPOS>SUBSTRUCTURE
     1 UNK         1 GROUP             0       ****    0 ROOT    
