@<TRIPOS>MOLECULE
3R135
127   129    1
SMALL
USER_CHARGES


@<TRIPOS>ATOM
      1 CA        -77.0053   27.0182  -72.1152 C.3       0 UNK        -0.1998 
      2 C         -78.2855   26.5057  -71.4747 C.2       0 UNK         0.4909 
      3 O         -78.2684   25.4559  -70.8322 O.2       0 UNK        -0.5240 
      4 N         -79.3974   27.2333  -71.6504 N.am      1 UNK        -0.4739 
      5 CA        -80.7272   26.8714  -71.1346 C.3       1 UNK         0.0864 
      6 C6        -81.6915   28.0837  -71.0966 C.3       11 UNK        -0.0881 
      7 S7        -81.2120   29.3050  -69.8264 S.3       11 UNK        -0.2682 
      8 C8        -81.0413   30.8392  -70.7902 C.3       11 UNK         0.0289 
      9 C9        -79.6972   30.9101  -71.4964 C.ar      11 UNK        -0.0687 
     10 C10       -79.5724   30.4826  -72.8201 C.ar      11 UNK        -0.0823 
     11 C11       -78.3347   30.5292  -73.4682 C.ar      11 UNK        -0.0830 
     12 C12       -77.2228   31.0422  -72.7912 C.ar      11 UNK        -0.1021 
     13 C13       -77.3410   31.4956  -71.4723 C.ar      11 UNK        -0.0753 
     14 C14       -78.5790   31.4183  -70.8283 C.ar      11 UNK        -0.0933 
     15 C15       -76.1434   32.1064  -70.7547 C.3       11 UNK         0.0166 
     16 S16       -75.3911   30.9853  -69.5274 S.3       11 UNK        -0.2615 
     17 C17       -74.7620   29.6420  -70.5862 C.3       11 UNK        -0.0865 
     18 CA        -73.4476   30.0101  -71.3426 C.3       10 UNK         0.0862 
     19 C         -72.1401   29.6468  -70.5736 C.2       10 UNK         0.5551 
     20 N         -72.1286   29.7868  -69.2548 N.am      10 UNK        -0.7319 
     21 O         -71.1187   29.2924  -71.1593 O.2       10 UNK        -0.5018 
     22 N         -73.4888   29.5430  -72.7366 N.am      10 UNK        -0.4509 
     23 C         -73.5331   28.2670  -73.1423 C.2       10 UNK         0.4899 
     24 O         -73.4823   27.2980  -72.3822 O.2       10 UNK        -0.4839 
     25 CA        -73.7664   28.0197  -74.6457 C.3       9 UNK         0.0222 
     26 CB        -73.7864   29.2928  -75.5240 C.3       9 UNK        -0.1966 
     27 N         -72.8621   27.0147  -75.2092 N.am      9 UNK        -0.4218 
     28 C         -71.5228   27.0655  -75.2516 C.2       9 UNK         0.5020 
     29 O         -70.8543   28.0121  -74.8333 O.2       9 UNK        -0.5274 
     30 CA        -70.7878   25.8567  -75.8612 C.3       8 UNK         0.0270 
     31 CB        -70.3118   24.9080  -74.7478 C.3       8 UNK        -0.1976 
     32 N         -71.5704   25.0911  -76.8370 N.am      8 UNK        -0.4313 
     33 C         -71.9314   25.5229  -78.0536 C.2       8 UNK         0.5041 
     34 O         -71.6831   26.6528  -78.4782 O.2       8 UNK        -0.5577 
     35 CA        -72.6717   24.5303  -78.9662 C.3       7 UNK         0.0284 
     36 CB        -72.7597   23.0930  -78.4091 C.3       7 UNK        -0.1958 
     37 N         -74.0234   25.0276  -79.1995 N.am      7 UNK        -0.4454 
     38 C         -74.5665   25.3023  -80.3927 C.2       7 UNK         0.5089 
     39 O         -73.9660   25.1728  -81.4607 O.2       7 UNK        -0.5125 
     40 CA        -76.0345   25.7786  -80.4203 C.3       6 UNK         0.0408 
     41 CB        -76.9184   24.7620  -81.1626 C.3       6 UNK        -0.1791 
     42 N         -76.5890   26.0033  -79.0815 N.am      6 UNK        -0.4762 
     43 C         -76.4269   27.1341  -78.3771 C.2       6 UNK         0.5007 
     44 O         -75.8792   28.1391  -78.8308 O.2       6 UNK        -0.5032 
     45 CA        -76.9153   27.1525  -76.9122 C.3       5 UNK         0.0783 
     46 C46       -78.2391   27.9399  -76.7807 C.3       11 UNK        -0.0857 
     47 S47       -78.6388   28.2737  -75.0353 S.3       11 UNK        -0.2512 
     48 C48       -78.2094   30.0370  -74.9027 C.3       11 UNK         0.0225 
     49 N         -77.0059   25.8164  -76.3060 N.am      5 UNK        -0.4615 
     50 C         -75.9770   24.9730  -76.1307 C.2       4 UNK         0.5053 
     51 O         -74.8090   25.2738  -76.3736 O.2       4 UNK        -0.5105 
     52 CA        -76.2839   23.5373  -75.6636 C.3       4 UNK         0.0263 
     53 CB        -76.0011   23.3994  -74.1595 C.3       4 UNK        -0.1981 
     54 N         -77.6519   23.0895  -75.9391 N.am      4 UNK        -0.4224 
     55 C         -78.2570   23.0776  -77.1371 C.2       3 UNK         0.4895 
     56 O         -77.6795   23.3356  -78.1930 O.2       3 UNK        -0.5091 
     57 CA        -79.7747   22.8022  -77.1606 C.3       3 UNK         0.0250 
     58 CB        -80.0504   21.3771  -77.6665 C.3       3 UNK        -0.1996 
     59 N         -80.4637   23.0007  -75.8756 N.am      3 UNK        -0.4254 
     60 C         -80.4655   24.1283  -75.1475 C.2       2 UNK         0.5004 
     61 O         -79.8783   25.1575  -75.4908 O.2       2 UNK        -0.5226 
     62 CA        -81.1816   24.0745  -73.7884 C.3       2 UNK         0.0269 
     63 CB        -80.8174   22.7925  -73.0006 C.3       2 UNK        -0.1926 
     64 N         -80.8107   25.2619  -73.0184 N.am      2 UNK        -0.4687 
     65 C         -81.3691   25.6718  -71.8722 C.2       1 UNK         0.5165 
     66 O         -82.3560   25.1270  -71.3738 O.2       1 UNK        -0.5079 
     67 H67       -76.7590   26.4249  -72.9950 H         1 UNK         0.0900 
     68 H68       -76.1759   26.9461  -71.4124 H         1 UNK         0.0900 
     69 H69       -77.1008   28.0575  -72.4247 H         1 UNK         0.0900 
     70 H70       -79.3477   28.0967  -72.1738 H         1 UNK         0.2959 
     71 H71       -80.5912   26.5292  -70.1059 H         1 UNK         0.1079 
     72 H72       -81.7616   28.5517  -72.0793 H         1 UNK         0.0837 
     73 H73       -82.7058   27.7648  -70.8473 H         1 UNK         0.0837 
     74 H74       -81.8622   30.9260  -71.5039 H         1 UNK         0.0685 
     75 H75       -81.1410   31.6886  -70.1127 H         1 UNK         0.0685 
     76 H76       -80.4362   30.1023  -73.3483 H         1 UNK         0.1434 
     77 H77       -76.2659   31.0977  -73.2916 H         1 UNK         0.1329 
     78 H78       -78.6728   31.7606  -69.8065 H         1 UNK         0.1335 
     79 H79       -75.3858   32.4205  -71.4739 H         1 UNK         0.0680 
     80 H80       -76.4615   33.0156  -70.2422 H         1 UNK         0.0680 
     81 H81       -75.5548   29.3937  -71.2887 H         1 UNK         0.1032 
     82 H82       -74.6341   28.7383  -69.9868 H         1 UNK         0.1032 
     83 H83       -73.4007   31.0946  -71.4456 H         1 UNK         0.0461 
     84 H84       -71.2858   29.5780  -68.7419 H         1 UNK         0.3453 
     85 H85       -72.9509   30.1117  -68.7681 H         1 UNK         0.3453 
     86 H86       -73.4803   30.2670  -73.4398 H         1 UNK         0.2984 
     87 H87       -74.7579   27.5724  -74.6888 H         1 UNK         0.0554 
     88 H88       -73.9811   29.0431  -76.5676 H         1 UNK         0.0847 
     89 H89       -72.8363   29.8274  -75.4913 H         1 UNK         0.0847 
     90 H90       -74.5724   29.9824  -75.2137 H         1 UNK         0.0847 
     91 H91       -73.3248   26.1956  -75.5954 H         1 UNK         0.3141 
     92 H92       -69.9057   26.2434  -76.3769 H         1 UNK         0.0743 
     93 H93       -71.1509   24.4703  -74.2045 H         1 UNK         0.0784 
     94 H94       -69.7066   24.0942  -75.1483 H         1 UNK         0.0784 
     95 H95       -69.6957   25.4390  -74.0205 H         1 UNK         0.0784 
     96 H96       -71.8356   24.1543  -76.5691 H         1 UNK         0.3213 
     97 H97       -72.1089   24.4948  -79.9014 H         1 UNK         0.0855 
     98 H98       -73.3325   23.0430  -77.4823 H         1 UNK         0.0814 
     99 H99       -71.7686   22.6777  -78.2201 H         1 UNK         0.0814 
    100 H100      -73.2462   22.4309  -79.1258 H         1 UNK         0.0814 
    101 H101      -74.5605   25.2237  -78.3617 H         1 UNK         0.3105 
    102 H102      -76.0625   26.7154  -80.9810 H         1 UNK         0.0547 
    103 H103      -76.5917   24.6428  -82.1965 H         1 UNK         0.0837 
    104 H104      -76.8806   23.7769  -80.6963 H         1 UNK         0.0837 
    105 H105      -77.9600   25.0824  -81.1883 H         1 UNK         0.0837 
    106 H106      -77.0369   25.2028  -78.6435 H         1 UNK         0.3020 
    107 H107      -76.1528   27.7061  -76.3679 H         1 UNK         0.1245 
    108 H108      -79.0642   27.3785  -77.2233 H         1 UNK         0.0781 
    109 H109      -78.1917   28.8876  -77.3211 H         1 UNK         0.0781 
    110 H110      -78.8704   30.6219  -75.5438 H         1 UNK         0.0836 
    111 H111      -77.1955   30.1877  -75.2764 H         1 UNK         0.0836 
    112 H112      -77.9423   25.5126  -76.0551 H         1 UNK         0.3022 
    113 H113      -75.6083   22.8728  -76.2057 H         1 UNK         0.0747 
    114 H114      -76.0857   22.3625  -73.8335 H         1 UNK         0.0793 
    115 H115      -74.9897   23.7307  -73.9178 H         1 UNK         0.0793 
    116 H116      -76.6913   23.9961  -73.5617 H         1 UNK         0.0793 
    117 H117      -78.2163   22.8603  -75.1350 H         1 UNK         0.3047 
    118 H118      -80.2100   23.5081  -77.8711 H         1 UNK         0.0822 
    119 H119      -81.1182   21.2007  -77.7974 H         1 UNK         0.0807 
    120 H120      -79.6653   20.6228  -76.9789 H         1 UNK         0.0807 
    121 H121      -79.5766   21.2073  -78.6347 H         1 UNK         0.0807 
    122 H122      -80.9655   22.2014  -75.5158 H         1 UNK         0.2946 
    123 H123      -82.2570   24.0995  -73.9765 H         1 UNK         0.1144 
    124 H124      -81.1308   21.8897  -73.5253 H         1 UNK         0.0793 
    125 H125      -81.3068   22.7624  -72.0274 H         1 UNK         0.0793 
    126 H126      -79.7426   22.7199  -72.8287 H         1 UNK         0.0793 
    127 H127      -80.0503   25.7981  -73.4199 H         1 UNK         0.2896 
@<TRIPOS>BOND
     1    1    2 1    
     2    1   67 1    
     3    1   68 1    
     4    1   69 1    
     5    2    3 2    
     6    2    4 am   BACKBONE|DICT|INTERRES
     7    4    5 1    
     8    4   70 1    
     9    5    6 1    
    10    5   65 1    
    11    5   71 1    
    12    6    7 1    
    13    6   72 1    
    14    6   73 1    
    15    7    8 1    
    16    8    9 1    
    17    8   74 1    
    18    8   75 1    
    19    9   10 ar   
    20    9   14 ar   
    21   10   11 ar   
    22   10   76 1    
    23   11   12 ar   
    24   11   48 1    
    25   12   13 ar   
    26   12   77 1    
    27   13   14 ar   
    28   13   15 1    
    29   14   78 1    
    30   15   16 1    
    31   15   79 1    
    32   15   80 1    
    33   16   17 1    
    34   17   18 1    
    35   17   81 1    
    36   17   82 1    
    37   18   19 1    
    38   18   22 1    
    39   18   83 1    
    40   19   20 am   BACKBONE|DICT|INTERRES
    41   19   21 2    
    42   20   84 1    
    43   20   85 1    
    44   22   23 am   BACKBONE|DICT|INTERRES
    45   22   86 1    
    46   23   24 2    
    47   23   25 1    
    48   25   26 1    
    49   25   27 1    
    50   25   87 1    
    51   26   88 1    
    52   26   89 1    
    53   26   90 1    
    54   27   28 am   BACKBONE|DICT|INTERRES
    55   27   91 1    
    56   28   29 2    
    57   28   30 1    
    58   30   31 1    
    59   30   32 1    
    60   30   92 1    
    61   31   93 1    
    62   31   94 1    
    63   31   95 1    
    64   32   33 am   BACKBONE|DICT|INTERRES
    65   32   96 1    
    66   33   34 2    
    67   33   35 1    
    68   35   36 1    
    69   35   37 1    
    70   35   97 1    
    71   36   98 1    
    72   36   99 1    
    73   36  100 1    
    74   37   38 am   BACKBONE|DICT|INTERRES
    75   37  101 1    
    76   38   39 2    
    77   38   40 1    
    78   40   41 1    
    79   40   42 1    
    80   40  102 1    
    81   41  103 1    
    82   41  104 1    
    83   41  105 1    
    84   42   43 am   BACKBONE|DICT|INTERRES
    85   42  106 1    
    86   43   44 2    
    87   43   45 1    
    88   45   46 1    
    89   45   49 1    
    90   45  107 1    
    91   46   47 1    
    92   46  108 1    
    93   46  109 1    
    94   47   48 1    
    95   48  110 1    
    96   48  111 1    
    97   49   50 am   BACKBONE|DICT|INTERRES
    98   49  112 1    
    99   50   51 2    
   100   50   52 1    
   101   52   53 1    
   102   52   54 1    
   103   52  113 1    
   104   53  114 1    
   105   53  115 1    
   106   53  116 1    
   107   54   55 am   BACKBONE|DICT|INTERRES
   108   54  117 1    
   109   55   56 2    
   110   55   57 1    
   111   57   58 1    
   112   57   59 1    
   113   57  118 1    
   114   58  119 1    
   115   58  120 1    
   116   58  121 1    
   117   59   60 am   BACKBONE|DICT|INTERRES
   118   59  122 1    
   119   60   61 2    
   120   60   62 1    
   121   62   63 1    
   122   62   64 1    
   123   62  123 1    
   124   63  124 1    
   125   63  125 1    
   126   63  126 1    
   127   64   65 am   BACKBONE|DICT|INTERRES
   128   64  127 1    
   129   65   66 2    
@<TRIPOS>SUBSTRUCTURE
     1 UNK         1 GROUP             0       ****    0 ROOT    
