@<TRIPOS>MOLECULE
3R135
127   129    1
SMALL
USER_CHARGES


@<TRIPOS>ATOM
      1 CA        -80.2297   29.5377  -73.8725 C.3       0 UNK        -0.1998 
      2 C         -80.1084   28.0218  -73.8998 C.2       0 UNK         0.4909 
      3 O         -80.8460   27.3646  -74.6348 O.2       0 UNK        -0.5240 
      4 N         -79.1906   27.4643  -73.0982 N.am      1 UNK        -0.4739 
      5 CA        -79.0008   26.0219  -72.9199 C.3       1 UNK         0.0864 
      6 C6        -77.7148   25.6946  -72.1159 C.3       11 UNK        -0.0881 
      7 S7        -76.2816   25.4862  -73.2191 S.3       11 UNK        -0.2682 
      8 C8        -75.2347   26.9162  -72.8161 C.3       11 UNK         0.0289 
      9 C9        -75.8638   28.2296  -73.2514 C.ar      11 UNK        -0.0687 
     10 C10       -76.0788   28.4896  -74.6084 C.ar      11 UNK        -0.0823 
     11 C11       -76.6434   29.6997  -75.0208 C.ar      11 UNK        -0.0830 
     12 C12       -76.9638   30.6651  -74.0621 C.ar      11 UNK        -0.1021 
     13 C13       -76.7404   30.4226  -72.7039 C.ar      11 UNK        -0.0753 
     14 C14       -76.2043   29.1963  -72.3018 C.ar      11 UNK        -0.0933 
     15 C15       -77.0820   31.4917  -71.6779 C.3       11 UNK         0.0166 
     16 S16       -75.7552   32.7316  -71.5317 S.3       11 UNK        -0.2615 
     17 C17       -74.4927   31.8290  -70.5676 C.3       11 UNK        -0.0865 
     18 CA        -73.1476   31.6426  -71.3204 C.3       10 UNK         0.0862 
     19 C         -72.0874   30.9948  -70.3782 C.2       10 UNK         0.5551 
     20 N         -71.5920   29.7909  -70.6422 N.am      10 UNK        -0.7319 
     21 O         -71.7061   31.6043  -69.3820 O.2       10 UNK        -0.5018 
     22 N         -73.3232   30.9583  -72.6117 N.am      10 UNK        -0.4509 
     23 C         -72.4040   30.9180  -73.5829 C.2       10 UNK         0.4899 
     24 O         -71.3385   31.5377  -73.5603 O.2       10 UNK        -0.4839 
     25 CA        -72.7225   30.0060  -74.7770 C.3       9 UNK         0.0222 
     26 CB        -72.8838   30.8129  -76.0745 C.3       9 UNK        -0.1966 
     27 N         -71.7096   28.9656  -74.9617 N.am      9 UNK        -0.4218 
     28 C         -71.3752   28.0338  -74.0590 C.2       9 UNK         0.5020 
     29 O         -71.8905   27.9498  -72.9414 O.2       9 UNK        -0.5274 
     30 CA        -70.3049   27.0114  -74.4933 C.3       8 UNK         0.0270 
     31 CB        -69.9516   26.0142  -73.3734 C.3       8 UNK        -0.1976 
     32 N         -70.7249   26.2599  -75.6792 N.am      8 UNK        -0.4313 
     33 C         -70.6997   26.7153  -76.9389 C.2       8 UNK         0.5041 
     34 O         -70.2652   27.8262  -77.2490 O.2       8 UNK        -0.5577 
     35 CA        -71.2827   25.7989  -78.0320 C.3       7 UNK         0.0284 
     36 CB        -70.1686   24.9578  -78.6760 C.3       7 UNK        -0.1958 
     37 N         -72.3581   24.9114  -77.5679 N.am      7 UNK        -0.4454 
     38 C         -73.5335   25.3310  -77.0802 C.2       7 UNK         0.5089 
     39 O         -73.8273   26.5212  -76.9388 O.2       7 UNK        -0.5125 
     40 CA        -74.5297   24.2362  -76.6529 C.3       6 UNK         0.0408 
     41 CB        -74.0535   23.5480  -75.3622 C.3       6 UNK        -0.1791 
     42 N         -75.8401   24.8402  -76.4131 N.am      6 UNK        -0.4762 
     43 C         -76.7496   25.0787  -77.3646 C.2       6 UNK         0.5007 
     44 O         -76.7385   24.5509  -78.4795 O.2       6 UNK        -0.5032 
     45 CA        -77.7772   26.1846  -77.0554 C.3       5 UNK         0.0783 
     46 C46       -77.3296   27.4897  -77.7622 C.3       11 UNK        -0.0857 
     47 S47       -78.2319   28.9662  -77.1895 S.3       11 UNK        -0.2512 
     48 C48       -76.8835   29.9836  -76.4976 C.3       11 UNK         0.0225 
     49 N         -79.1273   25.7910  -77.4612 N.am      5 UNK        -0.4615 
     50 C         -79.8583   24.8312  -76.8833 C.2       4 UNK         0.5053 
     51 O         -79.4821   24.1840  -75.9015 O.2       4 UNK        -0.5105 
     52 CA        -81.2599   24.6047  -77.4875 C.3       4 UNK         0.0263 
     53 CB        -81.2103   24.3107  -79.0035 C.3       4 UNK        -0.1981 
     54 N         -82.0244   23.5813  -76.7635 N.am      4 UNK        -0.4224 
     55 C         -81.8058   22.2589  -76.7088 C.2       3 UNK         0.4895 
     56 O         -80.9909   21.6536  -77.4079 O.2       3 UNK        -0.5091 
     57 CA        -82.6117   21.5011  -75.6342 C.3       3 UNK         0.0250 
     58 CB        -82.4597   19.9718  -75.7401 C.3       3 UNK        -0.1996 
     59 N         -82.1921   21.9301  -74.2969 N.am      3 UNK        -0.4254 
     60 C         -82.5706   23.0698  -73.7027 C.2       2 UNK         0.5004 
     61 O         -83.4105   23.8371  -74.1758 O.2       2 UNK        -0.5226 
     62 CA        -81.8304   23.4661  -72.4230 C.3       2 UNK         0.0269 
     63 CB        -81.4062   22.2698  -71.5473 C.3       2 UNK        -0.1926 
     64 N         -80.6534   24.2269  -72.8316 N.am      2 UNK        -0.4687 
     65 C         -80.2391   25.3686  -72.2738 C.2       1 UNK         0.5165 
     66 O         -80.7642   25.8877  -71.2852 O.2       1 UNK        -0.5079 
     67 H67       -79.6702   29.9741  -73.0458 H         1 UNK         0.0900 
     68 H68       -81.2736   29.8293  -73.7619 H         1 UNK         0.0900 
     69 H69       -79.8543   29.9620  -74.8029 H         1 UNK         0.0900 
     70 H70       -78.5979   28.0578  -72.5365 H         1 UNK         0.2959 
     71 H71       -78.9040   25.5983  -73.9185 H         1 UNK         0.1079 
     72 H72       -77.5141   26.4507  -71.3550 H         1 UNK         0.0837 
     73 H73       -77.8100   24.7518  -71.5726 H         1 UNK         0.0837 
     74 H74       -75.0122   26.9152  -71.7479 H         1 UNK         0.0685 
     75 H75       -74.2796   26.7980  -73.3288 H         1 UNK         0.0685 
     76 H76       -75.7913   27.7505  -75.3414 H         1 UNK         0.1434 
     77 H77       -77.3844   31.6128  -74.3702 H         1 UNK         0.1329 
     78 H78       -76.0371   28.9997  -71.2516 H         1 UNK         0.1335 
     79 H79       -78.0017   31.9982  -71.9748 H         1 UNK         0.0680 
     80 H80       -77.2844   31.0464  -70.7026 H         1 UNK         0.0680 
     81 H81       -74.8852   30.8632  -70.2473 H         1 UNK         0.1032 
     82 H82       -74.3313   32.3966  -69.6489 H         1 UNK         0.1032 
     83 H83       -72.7677   32.6407  -71.5470 H         1 UNK         0.0461 
     84 H84       -71.8742   29.2707  -71.4672 H         1 UNK         0.3453 
     85 H85       -70.9085   29.3962  -70.0167 H         1 UNK         0.3453 
     86 H86       -74.1790   30.4321  -72.7214 H         1 UNK         0.2984 
     87 H87       -73.6624   29.4960  -74.5820 H         1 UNK         0.0554 
     88 H88       -73.1766   30.1708  -76.9057 H         1 UNK         0.0847 
     89 H89       -71.9599   31.3225  -76.3507 H         1 UNK         0.0847 
     90 H90       -73.6581   31.5735  -75.9647 H         1 UNK         0.0847 
     91 H91       -71.2363   28.9295  -75.8594 H         1 UNK         0.3141 
     92 H92       -69.4002   27.5739  -74.7341 H         1 UNK         0.0743 
     93 H93       -69.6006   26.5368  -72.4824 H         1 UNK         0.0784 
     94 H94       -69.1567   25.3350  -73.6821 H         1 UNK         0.0784 
     95 H95       -70.8134   25.4131  -73.0800 H         1 UNK         0.0784 
     96 H96       -71.1299   25.3501  -75.5161 H         1 UNK         0.3213 
     97 H97       -71.7053   26.4492  -78.8011 H         1 UNK         0.0855 
     98 H98       -69.3670   25.5954  -79.0521 H         1 UNK         0.0814 
     99 H99       -70.5434   24.3813  -79.5220 H         1 UNK         0.0814 
    100 H100      -69.7233   24.2619  -77.9638 H         1 UNK         0.0814 
    101 H101      -72.1950   23.9180  -77.6549 H         1 UNK         0.3105 
    102 H102      -74.6033   23.4908  -77.4475 H         1 UNK         0.0547 
    103 H103      -73.8550   24.2676  -74.5669 H         1 UNK         0.0837 
    104 H104      -73.1329   22.9881  -75.5297 H         1 UNK         0.0837 
    105 H105      -74.7959   22.8400  -74.9932 H         1 UNK         0.0837 
    106 H106      -75.9345   25.3096  -75.5217 H         1 UNK         0.3020 
    107 H107      -77.7942   26.3559  -75.9769 H         1 UNK         0.1245 
    108 H108      -77.4694   27.4051  -78.8417 H         1 UNK         0.0781 
    109 H109      -76.2598   27.6579  -77.6262 H         1 UNK         0.0781 
    110 H110      -77.1496   31.0323  -76.6383 H         1 UNK         0.0836 
    111 H111      -75.9598   29.8385  -77.0593 H         1 UNK         0.0836 
    112 H112      -79.5077   26.2842  -78.2546 H         1 UNK         0.3022 
    113 H113      -81.8110   25.5355  -77.3434 H         1 UNK         0.0747 
    114 H114      -82.1979   24.0614  -79.3919 H         1 UNK         0.0793 
    115 H115      -80.8573   25.1763  -79.5643 H         1 UNK         0.0793 
    116 H116      -80.5401   23.4825  -79.2361 H         1 UNK         0.0793 
    117 H117      -82.6764   23.9466  -76.0758 H         1 UNK         0.3047 
    118 H118      -83.6675   21.7424  -75.7777 H         1 UNK         0.0822 
    119 H119      -83.0755   19.4604  -75.0001 H         1 UNK         0.0807 
    120 H120      -81.4263   19.6549  -75.5934 H         1 UNK         0.0807 
    121 H121      -82.7736   19.6166  -76.7226 H         1 UNK         0.0807 
    122 H122      -81.4680   21.3797  -73.8584 H         1 UNK         0.2946 
    123 H123      -82.5125   24.0953  -71.8457 H         1 UNK         0.1144 
    124 H124      -82.2575   21.6253  -71.3234 H         1 UNK         0.0793 
    125 H125      -81.0048   22.6127  -70.5935 H         1 UNK         0.0793 
    126 H126      -80.6388   21.6572  -72.0214 H         1 UNK         0.0793 
    127 H127      -80.1977   23.9135  -73.6817 H         1 UNK         0.2896 
@<TRIPOS>BOND
     1    1    2 1    
     2    1   67 1    
     3    1   68 1    
     4    1   69 1    
     5    2    3 2    
     6    2    4 am   BACKBONE|DICT|INTERRES
     7    4    5 1    
     8    4   70 1    
     9    5    6 1    
    10    5   65 1    
    11    5   71 1    
    12    6    7 1    
    13    6   72 1    
    14    6   73 1    
    15    7    8 1    
    16    8    9 1    
    17    8   74 1    
    18    8   75 1    
    19    9   10 ar   
    20    9   14 ar   
    21   10   11 ar   
    22   10   76 1    
    23   11   12 ar   
    24   11   48 1    
    25   12   13 ar   
    26   12   77 1    
    27   13   14 ar   
    28   13   15 1    
    29   14   78 1    
    30   15   16 1    
    31   15   79 1    
    32   15   80 1    
    33   16   17 1    
    34   17   18 1    
    35   17   81 1    
    36   17   82 1    
    37   18   19 1    
    38   18   22 1    
    39   18   83 1    
    40   19   20 am   BACKBONE|DICT|INTERRES
    41   19   21 2    
    42   20   84 1    
    43   20   85 1    
    44   22   23 am   BACKBONE|DICT|INTERRES
    45   22   86 1    
    46   23   24 2    
    47   23   25 1    
    48   25   26 1    
    49   25   27 1    
    50   25   87 1    
    51   26   88 1    
    52   26   89 1    
    53   26   90 1    
    54   27   28 am   BACKBONE|DICT|INTERRES
    55   27   91 1    
    56   28   29 2    
    57   28   30 1    
    58   30   31 1    
    59   30   32 1    
    60   30   92 1    
    61   31   93 1    
    62   31   94 1    
    63   31   95 1    
    64   32   33 am   BACKBONE|DICT|INTERRES
    65   32   96 1    
    66   33   34 2    
    67   33   35 1    
    68   35   36 1    
    69   35   37 1    
    70   35   97 1    
    71   36   98 1    
    72   36   99 1    
    73   36  100 1    
    74   37   38 am   BACKBONE|DICT|INTERRES
    75   37  101 1    
    76   38   39 2    
    77   38   40 1    
    78   40   41 1    
    79   40   42 1    
    80   40  102 1    
    81   41  103 1    
    82   41  104 1    
    83   41  105 1    
    84   42   43 am   BACKBONE|DICT|INTERRES
    85   42  106 1    
    86   43   44 2    
    87   43   45 1    
    88   45   46 1    
    89   45   49 1    
    90   45  107 1    
    91   46   47 1    
    92   46  108 1    
    93   46  109 1    
    94   47   48 1    
    95   48  110 1    
    96   48  111 1    
    97   49   50 am   BACKBONE|DICT|INTERRES
    98   49  112 1    
    99   50   51 2    
   100   50   52 1    
   101   52   53 1    
   102   52   54 1    
   103   52  113 1    
   104   53  114 1    
   105   53  115 1    
   106   53  116 1    
   107   54   55 am   BACKBONE|DICT|INTERRES
   108   54  117 1    
   109   55   56 2    
   110   55   57 1    
   111   57   58 1    
   112   57   59 1    
   113   57  118 1    
   114   58  119 1    
   115   58  120 1    
   116   58  121 1    
   117   59   60 am   BACKBONE|DICT|INTERRES
   118   59  122 1    
   119   60   61 2    
   120   60   62 1    
   121   62   63 1    
   122   62   64 1    
   123   62  123 1    
   124   63  124 1    
   125   63  125 1    
   126   63  126 1    
   127   64   65 am   BACKBONE|DICT|INTERRES
   128   64  127 1    
   129   65   66 2    
@<TRIPOS>SUBSTRUCTURE
     1 UNK         1 GROUP             0       ****    0 ROOT    
