@<TRIPOS>MOLECULE
3R135
127   129    1
SMALL
USER_CHARGES


@<TRIPOS>ATOM
      1 CA        -80.6415   24.3850  -71.4129 C.3       0 UNK        -0.1998 
      2 C         -82.0896   24.7478  -71.0975 C.2       0 UNK         0.4909 
      3 O         -82.7040   24.0721  -70.2744 O.2       0 UNK        -0.5240 
      4 N         -82.6948   25.7827  -71.7019 N.am      1 UNK        -0.4739 
      5 CA        -82.1800   26.7208  -72.7167 C.3       1 UNK         0.0864 
      6 C6        -80.9426   27.5481  -72.2775 C.3       11 UNK        -0.0881 
      7 S7        -81.1789   28.4477  -70.7085 S.3       11 UNK        -0.2682 
      8 C8        -79.4935   28.3855  -70.0018 C.3       11 UNK         0.0289 
      9 C9        -78.3896   28.8253  -70.9647 C.ar      11 UNK        -0.0687 
     10 C10       -78.5803   29.8853  -71.8596 C.ar      11 UNK        -0.0823 
     11 C11       -77.5816   30.2503  -72.7665 C.ar      11 UNK        -0.0830 
     12 C12       -76.3552   29.5794  -72.7320 C.ar      11 UNK        -0.1021 
     13 C13       -76.1436   28.5247  -71.8391 C.ar      11 UNK        -0.0753 
     14 C14       -77.1644   28.1514  -70.9610 C.ar      11 UNK        -0.0933 
     15 C15       -74.8329   27.7533  -71.8615 C.3       11 UNK         0.0166 
     16 S16       -73.6278   28.3213  -70.6146 S.3       11 UNK        -0.2615 
     17 C17       -73.3207   30.0752  -71.0463 C.3       11 UNK        -0.0865 
     18 CA        -72.2243   30.3066  -72.1215 C.3       10 UNK         0.0862 
     19 C         -70.7890   29.9812  -71.6096 C.2       10 UNK         0.5551 
     20 N         -70.0115   29.1340  -72.2750 N.am      10 UNK        -0.7319 
     21 O         -70.3644   30.5268  -70.5938 O.2       10 UNK        -0.5018 
     22 N         -72.5852   29.6583  -73.3867 N.am      10 UNK        -0.4509 
     23 C         -72.2385   30.0709  -74.6095 C.2       10 UNK         0.4899 
     24 O         -71.6210   31.1127  -74.8341 O.2       10 UNK        -0.4839 
     25 CA        -72.6684   29.1521  -75.7716 C.3       9 UNK         0.0222 
     26 CB        -71.8668   29.4052  -77.0647 C.3       9 UNK        -0.1966 
     27 N         -72.6605   27.7185  -75.4395 N.am      9 UNK        -0.4218 
     28 C         -71.6185   26.9996  -74.9901 C.2       9 UNK         0.5020 
     29 O         -70.5202   27.4798  -74.7075 O.2       9 UNK        -0.5274 
     30 CA        -71.8371   25.4908  -74.8179 C.3       8 UNK         0.0270 
     31 CB        -72.3761   25.1743  -73.4126 C.3       8 UNK        -0.1976 
     32 N         -72.7555   24.9626  -75.8299 N.am      8 UNK        -0.4313 
     33 C         -72.3670   24.3780  -76.9702 C.2       8 UNK         0.5041 
     34 O         -71.1897   24.1948  -77.2838 O.2       8 UNK        -0.5577 
     35 CA        -73.4778   23.8975  -77.9164 C.3       7 UNK         0.0284 
     36 CB        -74.1955   22.6657  -77.3381 C.3       7 UNK        -0.1958 
     37 N         -74.4645   24.9306  -78.2327 N.am      7 UNK        -0.4454 
     38 C         -74.2436   25.9962  -79.0158 C.2       7 UNK         0.5089 
     39 O         -73.1485   26.2774  -79.5022 O.2       7 UNK        -0.5125 
     40 CA        -75.4555   26.8910  -79.3230 C.3       6 UNK         0.0408 
     41 CB        -76.3715   26.2284  -80.3657 C.3       6 UNK        -0.1791 
     42 N         -76.2167   27.1682  -78.1039 N.am      6 UNK        -0.4762 
     43 C         -76.1454   28.3146  -77.4121 C.2       6 UNK         0.5007 
     44 O         -75.5480   29.3089  -77.8237 O.2       6 UNK        -0.5032 
     45 CA        -76.8069   28.3631  -76.0124 C.3       5 UNK         0.0783 
     46 C46       -77.9194   29.4403  -75.8958 C.3       11 UNK        -0.0857 
     47 S47       -77.2185   31.0720  -75.4541 S.3       11 UNK        -0.2512 
     48 C48       -77.8541   31.3739  -73.7656 C.3       11 UNK         0.0225 
     49 N         -77.2450   27.0505  -75.5220 N.am      5 UNK        -0.4615 
     50 C         -76.3999   26.1106  -75.0791 C.2       4 UNK         0.5053 
     51 O         -75.1757   26.2483  -75.0729 O.2       4 UNK        -0.5105 
     52 CA        -77.0061   24.7765  -74.6178 C.3       4 UNK         0.0263 
     53 CB        -77.4891   24.8881  -73.1649 C.3       4 UNK        -0.1981 
     54 N         -78.0955   24.2702  -75.4614 N.am      4 UNK        -0.4224 
     55 C         -78.0439   24.0680  -76.7845 C.2       3 UNK         0.4895 
     56 O         -77.0881   24.4050  -77.4818 O.2       3 UNK        -0.5091 
     57 CA        -79.2400   23.3757  -77.4648 C.3       3 UNK         0.0250 
     58 CB        -79.0715   21.8447  -77.4249 C.3       3 UNK        -0.1996 
     59 N         -80.5718   23.7819  -76.9891 N.am      3 UNK        -0.4254 
     60 C         -81.1205   23.6150  -75.7781 C.2       2 UNK         0.5004 
     61 O         -80.5526   23.0748  -74.8256 O.2       2 UNK        -0.5226 
     62 CA        -82.5455   24.1630  -75.5923 C.3       2 UNK         0.0269 
     63 CB        -83.5648   23.0131  -75.5578 C.3       2 UNK        -0.1926 
     64 N         -82.6639   24.9505  -74.3630 N.am      2 UNK        -0.4687 
     65 C         -81.9826   26.0773  -74.1080 C.2       1 UNK         0.5165 
     66 O         -81.2211   26.6035  -74.9226 O.2       1 UNK        -0.5079 
     67 H67       -80.4091   24.4868  -72.4698 H         1 UNK         0.0900 
     68 H68       -80.4476   23.3469  -71.1442 H         1 UNK         0.0900 
     69 H69       -79.9598   25.0088  -70.8360 H         1 UNK         0.0900 
     70 H70       -83.6513   25.9685  -71.4327 H         1 UNK         0.2959 
     71 H71       -82.9891   27.4372  -72.8684 H         1 UNK         0.1079 
     72 H72       -80.7065   28.2983  -73.0348 H         1 UNK         0.0837 
     73 H73       -80.0570   26.9191  -72.2080 H         1 UNK         0.0837 
     74 H74       -79.4603   29.0212  -69.1163 H         1 UNK         0.0685 
     75 H75       -79.3102   27.3661  -69.6583 H         1 UNK         0.0685 
     76 H76       -79.5230   30.4147  -71.8661 H         1 UNK         0.1434 
     77 H77       -75.5670   29.8715  -73.4111 H         1 UNK         0.1329 
     78 H78       -77.0032   27.3291  -70.2772 H         1 UNK         0.1335 
     79 H79       -74.3952   27.7870  -72.8576 H         1 UNK         0.0680 
     80 H80       -75.0349   26.6988  -71.6721 H         1 UNK         0.0680 
     81 H81       -74.2516   30.5441  -71.3613 H         1 UNK         0.1032 
     82 H82       -73.0526   30.5988  -70.1268 H         1 UNK         0.1032 
     83 H83       -72.2100   31.3820  -72.3089 H         1 UNK         0.0461 
     84 H84       -69.0849   28.9461  -71.9276 H         1 UNK         0.3453 
     85 H85       -70.3269   28.6832  -73.1271 H         1 UNK         0.3453 
     86 H86       -73.0416   28.7648  -73.2962 H         1 UNK         0.2984 
     87 H87       -73.7059   29.4130  -75.9721 H         1 UNK         0.0554 
     88 H88       -72.2234   28.7742  -77.8794 H         1 UNK         0.0847 
     89 H89       -70.8035   29.2071  -76.9258 H         1 UNK         0.0847 
     90 H90       -71.9671   30.4403  -77.3934 H         1 UNK         0.0847 
     91 H91       -73.5417   27.2283  -75.5597 H         1 UNK         0.3141 
     92 H92       -70.8618   25.0082  -74.9121 H         1 UNK         0.0743 
     93 H93       -72.4237   24.0984  -73.2444 H         1 UNK         0.0784 
     94 H94       -71.7293   25.5941  -72.6406 H         1 UNK         0.0784 
     95 H95       -73.3754   25.5774  -73.2554 H         1 UNK         0.0784 
     96 H96       -73.7451   25.1254  -75.6685 H         1 UNK         0.3213 
     97 H97       -73.0024   23.5964  -78.8527 H         1 UNK         0.0855 
     98 H98       -73.4843   21.8720  -77.1056 H         1 UNK         0.0814 
     99 H99       -74.9148   22.2579  -78.0488 H         1 UNK         0.0814 
    100 H100      -74.7344   22.9016  -76.4200 H         1 UNK         0.0814 
    101 H101      -75.4164   24.7569  -77.9124 H         1 UNK         0.3105 
    102 H102      -75.0800   27.8186  -79.7600 H         1 UNK         0.0547 
    103 H103      -75.8250   26.0203  -81.2864 H         1 UNK         0.0837 
    104 H104      -76.7825   25.2828  -80.0112 H         1 UNK         0.0837 
    105 H105      -77.2069   26.8783  -80.6257 H         1 UNK         0.0837 
    106 H106      -76.7092   26.3814  -77.6954 H         1 UNK         0.3020 
    107 H107      -75.9962   28.6623  -75.3472 H         1 UNK         0.1245 
    108 H108      -78.6464   29.1619  -75.1309 H         1 UNK         0.0781 
    109 H109      -78.4900   29.5300  -76.8221 H         1 UNK         0.0781 
    110 H110      -78.9261   31.5629  -73.8409 H         1 UNK         0.0836 
    111 H111      -77.4076   32.2930  -73.3845 H         1 UNK         0.0836 
    112 H112      -78.2378   26.8621  -75.5223 H         1 UNK         0.3022 
    113 H113      -76.2091   24.0315  -74.6516 H         1 UNK         0.0747 
    114 H114      -77.8761   23.9367  -72.7997 H         1 UNK         0.0793 
    115 H115      -76.6731   25.1776  -72.5028 H         1 UNK         0.0793 
    116 H116      -78.2737   25.6369  -73.0606 H         1 UNK         0.0793 
    117 H117      -78.9278   23.9251  -74.9876 H         1 UNK         0.3047 
    118 H118      -79.2041   23.6762  -78.5133 H         1 UNK         0.0822 
    119 H119      -79.0892   21.4570  -76.4058 H         1 UNK         0.0807 
    120 H120      -78.1195   21.5468  -77.8669 H         1 UNK         0.0807 
    121 H121      -79.8597   21.3444  -77.9874 H         1 UNK         0.0807 
    122 H122      -81.1242   24.2715  -77.6800 H         1 UNK         0.2946 
    123 H123      -82.7887   24.8186  -76.4317 H         1 UNK         0.1144 
    124 H124      -83.5150   22.4195  -76.4718 H         1 UNK         0.0793 
    125 H125      -83.3821   22.3375  -74.7208 H         1 UNK         0.0793 
    126 H126      -84.5850   23.3875  -75.4714 H         1 UNK         0.0793 
    127 H127      -83.2481   24.5711  -73.6319 H         1 UNK         0.2896 
@<TRIPOS>BOND
     1    1    2 1    
     2    1   67 1    
     3    1   68 1    
     4    1   69 1    
     5    2    3 2    
     6    2    4 am   BACKBONE|DICT|INTERRES
     7    4    5 1    
     8    4   70 1    
     9    5    6 1    
    10    5   65 1    
    11    5   71 1    
    12    6    7 1    
    13    6   72 1    
    14    6   73 1    
    15    7    8 1    
    16    8    9 1    
    17    8   74 1    
    18    8   75 1    
    19    9   10 ar   
    20    9   14 ar   
    21   10   11 ar   
    22   10   76 1    
    23   11   12 ar   
    24   11   48 1    
    25   12   13 ar   
    26   12   77 1    
    27   13   14 ar   
    28   13   15 1    
    29   14   78 1    
    30   15   16 1    
    31   15   79 1    
    32   15   80 1    
    33   16   17 1    
    34   17   18 1    
    35   17   81 1    
    36   17   82 1    
    37   18   19 1    
    38   18   22 1    
    39   18   83 1    
    40   19   20 am   BACKBONE|DICT|INTERRES
    41   19   21 2    
    42   20   84 1    
    43   20   85 1    
    44   22   23 am   BACKBONE|DICT|INTERRES
    45   22   86 1    
    46   23   24 2    
    47   23   25 1    
    48   25   26 1    
    49   25   27 1    
    50   25   87 1    
    51   26   88 1    
    52   26   89 1    
    53   26   90 1    
    54   27   28 am   BACKBONE|DICT|INTERRES
    55   27   91 1    
    56   28   29 2    
    57   28   30 1    
    58   30   31 1    
    59   30   32 1    
    60   30   92 1    
    61   31   93 1    
    62   31   94 1    
    63   31   95 1    
    64   32   33 am   BACKBONE|DICT|INTERRES
    65   32   96 1    
    66   33   34 2    
    67   33   35 1    
    68   35   36 1    
    69   35   37 1    
    70   35   97 1    
    71   36   98 1    
    72   36   99 1    
    73   36  100 1    
    74   37   38 am   BACKBONE|DICT|INTERRES
    75   37  101 1    
    76   38   39 2    
    77   38   40 1    
    78   40   41 1    
    79   40   42 1    
    80   40  102 1    
    81   41  103 1    
    82   41  104 1    
    83   41  105 1    
    84   42   43 am   BACKBONE|DICT|INTERRES
    85   42  106 1    
    86   43   44 2    
    87   43   45 1    
    88   45   46 1    
    89   45   49 1    
    90   45  107 1    
    91   46   47 1    
    92   46  108 1    
    93   46  109 1    
    94   47   48 1    
    95   48  110 1    
    96   48  111 1    
    97   49   50 am   BACKBONE|DICT|INTERRES
    98   49  112 1    
    99   50   51 2    
   100   50   52 1    
   101   52   53 1    
   102   52   54 1    
   103   52  113 1    
   104   53  114 1    
   105   53  115 1    
   106   53  116 1    
   107   54   55 am   BACKBONE|DICT|INTERRES
   108   54  117 1    
   109   55   56 2    
   110   55   57 1    
   111   57   58 1    
   112   57   59 1    
   113   57  118 1    
   114   58  119 1    
   115   58  120 1    
   116   58  121 1    
   117   59   60 am   BACKBONE|DICT|INTERRES
   118   59  122 1    
   119   60   61 2    
   120   60   62 1    
   121   62   63 1    
   122   62   64 1    
   123   62  123 1    
   124   63  124 1    
   125   63  125 1    
   126   63  126 1    
   127   64   65 am   BACKBONE|DICT|INTERRES
   128   64  127 1    
   129   65   66 2    
@<TRIPOS>SUBSTRUCTURE
     1 UNK         1 GROUP             0       ****    0 ROOT    
