@<TRIPOS>MOLECULE
3R135
127   129    1
SMALL
USER_CHARGES


@<TRIPOS>ATOM
      1 CA        -84.4469   28.7949  -71.1939 C.3       0 UNK        -0.1998 
      2 C         -83.7353   29.2969  -72.4412 C.2       0 UNK         0.4909 
      3 O         -84.3315   30.0253  -73.2352 O.2       0 UNK        -0.5240 
      4 N         -82.4651   28.9103  -72.6207 N.am      1 UNK        -0.4739 
      5 CA        -81.6270   29.2958  -73.7667 C.3       1 UNK         0.0864 
      6 C6        -80.1190   29.1915  -73.4327 C.3       11 UNK        -0.0881 
      7 S7        -79.6306   30.4714  -72.2220 S.3       11 UNK        -0.2682 
      8 C8        -79.4545   29.5278  -70.6724 C.3       11 UNK         0.0289 
      9 C9        -78.2064   28.6600  -70.6863 C.ar      11 UNK        -0.0687 
     10 C10       -78.3093   27.2682  -70.7537 C.ar      11 UNK        -0.0823 
     11 C11       -77.1607   26.4740  -70.8390 C.ar      11 UNK        -0.0830 
     12 C12       -75.9022   27.0837  -70.8278 C.ar      11 UNK        -0.1021 
     13 C13       -75.7877   28.4742  -70.7468 C.ar      11 UNK        -0.0753 
     14 C14       -76.9429   29.2555  -70.6609 C.ar      11 UNK        -0.0933 
     15 C15       -74.4205   29.1405  -70.7978 C.3       11 UNK         0.0166 
     16 S16       -73.7630   29.2125  -72.4963 S.3       11 UNK        -0.2615 
     17 C17       -75.1124   30.0828  -73.3771 C.3       11 UNK        -0.0865 
     18 CA        -74.7775   30.4447  -74.8476 C.3       10 UNK         0.0862 
     19 C         -73.8492   31.6916  -74.9602 C.2       10 UNK         0.5551 
     20 N         -72.7169   31.6344  -75.6520 N.am      10 UNK        -0.7319 
     21 O         -74.1753   32.7456  -74.4195 O.2       10 UNK        -0.5018 
     22 N         -74.3222   29.2593  -75.5841 N.am      10 UNK        -0.4509 
     23 C         -74.4075   29.0702  -76.9045 C.2       10 UNK         0.4899 
     24 O         -74.9905   29.8353  -77.6740 O.2       10 UNK        -0.4839 
     25 CA        -73.6943   27.8122  -77.4402 C.3       9 UNK         0.0222 
     26 CB        -73.4934   27.8354  -78.9696 C.3       9 UNK        -0.1966 
     27 N         -72.4249   27.5377  -76.7503 N.am      9 UNK        -0.4218 
     28 C         -71.3624   28.3576  -76.6555 C.2       9 UNK         0.5020 
     29 O         -71.3227   29.4807  -77.1595 O.2       9 UNK        -0.5274 
     30 CA        -70.1513   27.8870  -75.8249 C.3       8 UNK         0.0270 
     31 CB        -70.0800   28.6715  -74.5032 C.3       8 UNK        -0.1976 
     32 N         -70.1587   26.4553  -75.5219 N.am      8 UNK        -0.4313 
     33 C         -69.9731   25.4730  -76.4135 C.2       8 UNK         0.5041 
     34 O         -69.6538   25.6662  -77.5870 O.2       8 UNK        -0.5577 
     35 CA        -70.2121   24.0313  -75.9243 C.3       7 UNK         0.0284 
     36 CB        -68.8710   23.3204  -75.6782 C.3       7 UNK        -0.1958 
     37 N         -71.0477   23.9132  -74.7194 N.am      7 UNK        -0.4454 
     38 C         -72.3153   24.3320  -74.6031 C.2       7 UNK         0.5089 
     39 O         -72.9187   24.9623  -75.4768 O.2       7 UNK        -0.5125 
     40 CA        -73.0061   24.0445  -73.2658 C.3       6 UNK         0.0408 
     41 CB        -72.8004   25.2149  -72.2922 C.3       6 UNK        -0.1791 
     42 N         -74.4311   23.8735  -73.5273 N.am      6 UNK        -0.4762 
     43 C         -75.1476   22.7756  -73.2585 C.2       6 UNK         0.5007 
     44 O         -74.7340   21.8434  -72.5676 O.2       6 UNK        -0.5032 
     45 CA        -76.5542   22.6767  -73.8892 C.3       5 UNK         0.0783 
     46 C46       -77.6822   22.8261  -72.8303 C.3       11 UNK        -0.0857 
     47 S47       -78.1840   24.5529  -72.5143 S.3       11 UNK        -0.2512 
     48 C48       -77.2827   24.9641  -70.9892 C.3       11 UNK         0.0225 
     49 N         -76.7382   23.5872  -75.0273 N.am      5 UNK        -0.4615 
     50 C         -76.1600   23.4823  -76.2280 C.2       4 UNK         0.5053 
     51 O         -75.4474   22.5348  -76.5615 O.2       4 UNK        -0.5105 
     52 CA        -76.4579   24.6272  -77.2153 C.3       4 UNK         0.0263 
     53 CB        -75.5827   24.5625  -78.4809 C.3       4 UNK        -0.1981 
     54 N         -77.8706   24.6292  -77.6019 N.am      4 UNK        -0.4224 
     55 C         -78.8732   25.1074  -76.8531 C.2       3 UNK         0.4895 
     56 O         -78.7112   25.6856  -75.7753 O.2       3 UNK        -0.5091 
     57 CA        -80.2890   24.8495  -77.3775 C.3       3 UNK         0.0250 
     58 CB        -80.6389   23.3491  -77.2981 C.3       3 UNK        -0.1996 
     59 N         -81.2529   25.6200  -76.5939 N.am      3 UNK        -0.4254 
     60 C         -82.4742   25.9677  -77.0132 C.2       2 UNK         0.5004 
     61 O         -82.9076   25.7026  -78.1358 O.2       2 UNK        -0.5226 
     62 CA        -83.3920   26.7088  -76.0253 C.3       2 UNK         0.0269 
     63 CB        -84.4229   25.7370  -75.4265 C.3       2 UNK        -0.1926 
     64 N         -82.7115   27.4047  -74.9282 N.am      2 UNK        -0.4687 
     65 C         -81.9963   28.5320  -75.0598 C.2       1 UNK         0.5165 
     66 O         -81.6757   29.0054  -76.1507 O.2       1 UNK        -0.5079 
     67 H67       -83.8005   28.1691  -70.5787 H         1 UNK         0.0900 
     68 H68       -85.3224   28.2086  -71.4718 H         1 UNK         0.0900 
     69 H69       -84.7790   29.6372  -70.5876 H         1 UNK         0.0900 
     70 H70       -82.0254   28.3156  -71.9338 H         1 UNK         0.2959 
     71 H71       -81.8382   30.3447  -73.9901 H         1 UNK         0.1079 
     72 H72       -79.8613   28.1950  -73.0701 H         1 UNK         0.0837 
     73 H73       -79.5133   29.3513  -74.3272 H         1 UNK         0.0837 
     74 H74       -80.3507   28.9303  -70.5008 H         1 UNK         0.0685 
     75 H75       -79.3905   30.2293  -69.8394 H         1 UNK         0.0685 
     76 H76       -79.2838   26.7999  -70.7793 H         1 UNK         0.1434 
     77 H77       -75.0094   26.4818  -70.9082 H         1 UNK         0.1329 
     78 H78       -76.8631   30.3332  -70.6164 H         1 UNK         0.1335 
     79 H79       -74.4690   30.1513  -70.3897 H         1 UNK         0.0680 
     80 H80       -73.7199   28.5891  -70.1691 H         1 UNK         0.0680 
     81 H81       -75.4045   30.9693  -72.8109 H         1 UNK         0.1032 
     82 H82       -75.9889   29.4326  -73.3730 H         1 UNK         0.1032 
     83 H83       -75.7166   30.7599  -75.3066 H         1 UNK         0.0461 
     84 H84       -72.1418   32.4590  -75.7128 H         1 UNK         0.3453 
     85 H85       -72.4319   30.7905  -76.1362 H         1 UNK         0.3453 
     86 H86       -73.8104   28.5869  -75.0319 H         1 UNK         0.2984 
     87 H87       -74.3486   26.9729  -77.2067 H         1 UNK         0.0554 
     88 H88       -73.0116   26.9223  -79.3190 H         1 UNK         0.0847 
     89 H89       -72.8802   28.6804  -79.2842 H         1 UNK         0.0847 
     90 H90       -74.4492   27.9153  -79.4889 H         1 UNK         0.0847 
     91 H91       -72.3825   26.6347  -76.2834 H         1 UNK         0.3141 
     92 H92       -69.2537   28.1074  -76.4065 H         1 UNK         0.0743 
     93 H93       -70.9497   28.4824  -73.8724 H         1 UNK         0.0784 
     94 H94       -69.1876   28.4115  -73.9336 H         1 UNK         0.0784 
     95 H95       -70.0414   29.7464  -74.6868 H         1 UNK         0.0784 
     96 H96       -70.3984   26.1921  -74.5777 H         1 UNK         0.3213 
     97 H97       -70.7327   23.5088  -76.7298 H         1 UNK         0.0855 
     98 H98       -68.3151   23.7788  -74.8592 H         1 UNK         0.0814 
     99 H99       -68.2372   23.3634  -76.5653 H         1 UNK         0.0814 
    100 H100      -69.0162   22.2666  -75.4397 H         1 UNK         0.0814 
    101 H101      -70.6338   23.4228  -73.9387 H         1 UNK         0.3105 
    102 H102      -72.5752   23.1381  -72.8353 H         1 UNK         0.0547 
    103 H103      -71.7404   25.4005  -72.1149 H         1 UNK         0.0837 
    104 H104      -73.2356   26.1400  -72.6725 H         1 UNK         0.0837 
    105 H105      -73.2527   25.0001  -71.3245 H         1 UNK         0.0837 
    106 H106      -74.8296   24.5534  -74.1606 H         1 UNK         0.3020 
    107 H107      -76.6161   21.6598  -74.2840 H         1 UNK         0.1245 
    108 H108      -77.4296   22.3296  -71.8910 H         1 UNK         0.0781 
    109 H109      -78.5710   22.3091  -73.1950 H         1 UNK         0.0781 
    110 H110      -76.2954   24.5004  -71.0113 H         1 UNK         0.0836 
    111 H111      -77.8080   24.5469  -70.1291 H         1 UNK         0.0836 
    112 H112      -77.3552   24.3767  -74.8602 H         1 UNK         0.3022 
    113 H113      -76.2305   25.5645  -76.7032 H         1 UNK         0.0747 
    114 H114      -75.7614   25.4192  -79.1310 H         1 UNK         0.0793 
    115 H115      -74.5230   24.5707  -78.2204 H         1 UNK         0.0793 
    116 H116      -75.7696   23.6566  -79.0587 H         1 UNK         0.0793 
    117 H117      -78.0973   24.1415  -78.4570 H         1 UNK         0.3047 
    118 H118      -80.3247   25.1819  -78.4175 H         1 UNK         0.0822 
    119 H119      -79.9464   22.7445  -77.8847 H         1 UNK         0.0807 
    120 H120      -81.6385   23.1512  -77.6855 H         1 UNK         0.0807 
    121 H121      -80.6018   22.9837  -76.2708 H         1 UNK         0.0807 
    122 H122      -80.9252   25.9189  -75.6838 H         1 UNK         0.2946 
    123 H123      -83.9336   27.4589  -76.6067 H         1 UNK         0.1144 
    124 H124      -84.9796   25.2232  -76.2118 H         1 UNK         0.0793 
    125 H125      -85.1516   26.2614  -74.8079 H         1 UNK         0.0793 
    126 H126      -83.9464   24.9721  -74.8120 H         1 UNK         0.0793 
    127 H127      -82.9233   27.0906  -73.9924 H         1 UNK         0.2896 
@<TRIPOS>BOND
     1    1    2 1    
     2    1   67 1    
     3    1   68 1    
     4    1   69 1    
     5    2    3 2    
     6    2    4 am   BACKBONE|DICT|INTERRES
     7    4    5 1    
     8    4   70 1    
     9    5    6 1    
    10    5   65 1    
    11    5   71 1    
    12    6    7 1    
    13    6   72 1    
    14    6   73 1    
    15    7    8 1    
    16    8    9 1    
    17    8   74 1    
    18    8   75 1    
    19    9   10 ar   
    20    9   14 ar   
    21   10   11 ar   
    22   10   76 1    
    23   11   12 ar   
    24   11   48 1    
    25   12   13 ar   
    26   12   77 1    
    27   13   14 ar   
    28   13   15 1    
    29   14   78 1    
    30   15   16 1    
    31   15   79 1    
    32   15   80 1    
    33   16   17 1    
    34   17   18 1    
    35   17   81 1    
    36   17   82 1    
    37   18   19 1    
    38   18   22 1    
    39   18   83 1    
    40   19   20 am   BACKBONE|DICT|INTERRES
    41   19   21 2    
    42   20   84 1    
    43   20   85 1    
    44   22   23 am   BACKBONE|DICT|INTERRES
    45   22   86 1    
    46   23   24 2    
    47   23   25 1    
    48   25   26 1    
    49   25   27 1    
    50   25   87 1    
    51   26   88 1    
    52   26   89 1    
    53   26   90 1    
    54   27   28 am   BACKBONE|DICT|INTERRES
    55   27   91 1    
    56   28   29 2    
    57   28   30 1    
    58   30   31 1    
    59   30   32 1    
    60   30   92 1    
    61   31   93 1    
    62   31   94 1    
    63   31   95 1    
    64   32   33 am   BACKBONE|DICT|INTERRES
    65   32   96 1    
    66   33   34 2    
    67   33   35 1    
    68   35   36 1    
    69   35   37 1    
    70   35   97 1    
    71   36   98 1    
    72   36   99 1    
    73   36  100 1    
    74   37   38 am   BACKBONE|DICT|INTERRES
    75   37  101 1    
    76   38   39 2    
    77   38   40 1    
    78   40   41 1    
    79   40   42 1    
    80   40  102 1    
    81   41  103 1    
    82   41  104 1    
    83   41  105 1    
    84   42   43 am   BACKBONE|DICT|INTERRES
    85   42  106 1    
    86   43   44 2    
    87   43   45 1    
    88   45   46 1    
    89   45   49 1    
    90   45  107 1    
    91   46   47 1    
    92   46  108 1    
    93   46  109 1    
    94   47   48 1    
    95   48  110 1    
    96   48  111 1    
    97   49   50 am   BACKBONE|DICT|INTERRES
    98   49  112 1    
    99   50   51 2    
   100   50   52 1    
   101   52   53 1    
   102   52   54 1    
   103   52  113 1    
   104   53  114 1    
   105   53  115 1    
   106   53  116 1    
   107   54   55 am   BACKBONE|DICT|INTERRES
   108   54  117 1    
   109   55   56 2    
   110   55   57 1    
   111   57   58 1    
   112   57   59 1    
   113   57  118 1    
   114   58  119 1    
   115   58  120 1    
   116   58  121 1    
   117   59   60 am   BACKBONE|DICT|INTERRES
   118   59  122 1    
   119   60   61 2    
   120   60   62 1    
   121   62   63 1    
   122   62   64 1    
   123   62  123 1    
   124   63  124 1    
   125   63  125 1    
   126   63  126 1    
   127   64   65 am   BACKBONE|DICT|INTERRES
   128   64  127 1    
   129   65   66 2    
@<TRIPOS>SUBSTRUCTURE
     1 UNK         1 GROUP             0       ****    0 ROOT    
