@<TRIPOS>MOLECULE
3R135
127   129    1
SMALL
USER_CHARGES


@<TRIPOS>ATOM
      1 CA        -79.9798   27.7319  -70.4014 C.3       0 UNK        -0.1998 
      2 C         -80.9442   27.7177  -71.5775 C.2       0 UNK         0.4909 
      3 O         -82.1443   27.5214  -71.3866 O.2       0 UNK        -0.5240 
      4 N         -80.4264   27.9306  -72.7931 N.am      1 UNK        -0.4739 
      5 CA        -81.1979   28.0214  -74.0412 C.3       1 UNK         0.0864 
      6 C6        -80.3446   28.6308  -75.1816 C.3       11 UNK        -0.0881 
      7 S7        -79.8859   30.3666  -74.8647 S.3       11 UNK        -0.2682 
      8 C8        -78.0709   30.3092  -74.9631 C.3       11 UNK         0.0289 
      9 C9        -77.4407   29.9671  -73.6221 C.ar      11 UNK        -0.0687 
     10 C10       -77.0030   28.6691  -73.3428 C.ar      11 UNK        -0.0823 
     11 C11       -76.3655   28.3772  -72.1307 C.ar      11 UNK        -0.0830 
     12 C12       -76.1786   29.3981  -71.1946 C.ar      11 UNK        -0.1021 
     13 C13       -76.5897   30.7026  -71.4742 C.ar      11 UNK        -0.0753 
     14 C14       -77.2363   30.9776  -72.6806 C.ar      11 UNK        -0.0933 
     15 C15       -76.2960   31.8286  -70.4980 C.3       11 UNK         0.0166 
     16 S16       -74.9172   32.8669  -71.0824 S.3       11 UNK        -0.2615 
     17 C17       -73.4591   31.8105  -70.7683 C.3       11 UNK        -0.0865 
     18 CA        -72.4518   31.8164  -71.9589 C.3       10 UNK         0.0862 
     19 C         -71.0187   31.2961  -71.6190 C.2       10 UNK         0.5551 
     20 N         -70.6785   31.0640  -70.3570 N.am      10 UNK        -0.7319 
     21 O         -70.1777   31.1607  -72.5055 O.2       10 UNK        -0.5018 
     22 N         -73.0015   31.2033  -73.1827 N.am      10 UNK        -0.4509 
     23 C         -73.1713   29.8915  -73.4076 C.2       10 UNK         0.4899 
     24 O         -72.9564   29.0187  -72.5631 O.2       10 UNK        -0.4839 
     25 CA        -73.6954   29.4773  -74.8019 C.3       9 UNK         0.0222 
     26 CB        -73.4777   30.5342  -75.9086 C.3       9 UNK        -0.1966 
     27 N         -73.1877   28.1635  -75.2167 N.am      9 UNK        -0.4218 
     28 C         -71.9125   27.8215  -75.4602 C.2       9 UNK         0.5020 
     29 O         -70.9694   28.6138  -75.4576 O.2       9 UNK        -0.5274 
     30 CA        -71.6341   26.3401  -75.7633 C.3       8 UNK         0.0270 
     31 CB        -71.5499   25.5356  -74.4547 C.3       8 UNK        -0.1976 
     32 N         -72.6671   25.7552  -76.6213 N.am      8 UNK        -0.4313 
     33 C         -72.5218   25.4667  -77.9221 C.2       8 UNK         0.5041 
     34 O         -71.4755   25.6402  -78.5490 O.2       8 UNK        -0.5577 
     35 CA        -73.7395   24.8724  -78.6609 C.3       7 UNK         0.0284 
     36 CB        -73.6514   23.3379  -78.6904 C.3       7 UNK        -0.1958 
     37 N         -75.0274   25.2598  -78.0829 N.am      7 UNK        -0.4454 
     38 C         -75.5209   26.5050  -78.0681 C.2       7 UNK         0.5089 
     39 O         -74.9957   27.4580  -78.6432 O.2       7 UNK        -0.5125 
     40 CA        -76.7950   26.7384  -77.2356 C.3       6 UNK         0.0408 
     41 CB        -78.0379   26.7161  -78.1385 C.3       6 UNK        -0.1791 
     42 N         -76.9936   25.7936  -76.1296 N.am      6 UNK        -0.4762 
     43 C         -76.1371   25.5479  -75.1276 C.2       6 UNK         0.5007 
     44 O         -75.0168   26.0493  -75.0552 O.2       6 UNK        -0.5032 
     45 CA        -76.6085   24.5630  -74.0436 C.3       5 UNK         0.0783 
     46 C46       -77.6672   25.2086  -73.1016 C.3       11 UNK        -0.0857 
     47 S47       -77.0261   25.7285  -71.4748 S.3       11 UNK        -0.2512 
     48 C48       -75.7771   26.9989  -71.8550 C.3       11 UNK         0.0225 
     49 N         -77.1119   23.3456  -74.6801 N.am      5 UNK        -0.4615 
     50 C         -76.3463   22.3851  -75.2149 C.2       4 UNK         0.5053 
     51 O         -75.1168   22.3847  -75.1640 O.2       4 UNK        -0.5105 
     52 CA        -77.0712   21.2328  -75.9343 C.3       4 UNK         0.0263 
     53 CB        -77.2472   20.0366  -74.9853 C.3       4 UNK        -0.1981 
     54 N         -78.3799   21.6219  -76.4682 N.am      4 UNK        -0.4224 
     55 C         -78.5578   22.4262  -77.5260 C.2       3 UNK         0.4895 
     56 O         -77.6367   22.8811  -78.2053 O.2       3 UNK        -0.5091 
     57 CA        -80.0100   22.8306  -77.8453 C.3       3 UNK         0.0250 
     58 CB        -80.6907   21.7604  -78.7136 C.3       3 UNK        -0.1996 
     59 N         -80.8359   23.1034  -76.6580 N.am      3 UNK        -0.4254 
     60 C         -80.5483   24.0339  -75.7376 C.2       2 UNK         0.5004 
     61 O         -79.5155   24.7065  -75.7583 O.2       2 UNK        -0.5226 
     62 CA        -81.5381   24.2240  -74.5760 C.3       2 UNK         0.0269 
     63 CB        -81.3310   23.1445  -73.5009 C.3       2 UNK        -0.1926 
     64 N         -81.3360   25.5475  -73.9773 N.am      2 UNK        -0.4687 
     65 C         -81.8042   26.6813  -74.5172 C.2       1 UNK         0.5165 
     66 O         -82.6594   26.6977  -75.4048 O.2       1 UNK        -0.5079 
     67 H67       -79.8617   26.7261  -69.9994 H         1 UNK         0.0900 
     68 H68       -80.3610   28.3752  -69.6089 H         1 UNK         0.0900 
     69 H69       -78.9955   28.1018  -70.6885 H         1 UNK         0.0900 
     70 H70       -79.4409   28.1364  -72.8763 H         1 UNK         0.2959 
     71 H71       -82.0452   28.6858  -73.8570 H         1 UNK         0.1079 
     72 H72       -79.4524   28.0253  -75.3517 H         1 UNK         0.0837 
     73 H73       -80.8936   28.6238  -76.1258 H         1 UNK         0.0837 
     74 H74       -77.7549   29.6091  -75.7368 H         1 UNK         0.0685 
     75 H75       -77.7130   31.2877  -75.2871 H         1 UNK         0.0685 
     76 H76       -77.1189   27.9059  -74.0941 H         1 UNK         0.1434 
     77 H77       -75.6653   29.1884  -70.2662 H         1 UNK         0.1329 
     78 H78       -77.5488   31.9893  -72.9015 H         1 UNK         0.1335 
     79 H79       -77.1851   32.4511  -70.3881 H         1 UNK         0.0680 
     80 H80       -76.0685   31.4400  -69.5040 H         1 UNK         0.0680 
     81 H81       -73.7638   30.7901  -70.5344 H         1 UNK         0.1032 
     82 H82       -72.9973   32.2065  -69.8632 H         1 UNK         0.1032 
     83 H83       -72.2856   32.8622  -72.2203 H         1 UNK         0.0461 
     84 H84       -69.7413   30.7514  -70.1565 H         1 UNK         0.3453 
     85 H85       -71.3376   31.1767  -69.6043 H         1 UNK         0.3453 
     86 H86       -73.1949   31.8450  -73.9366 H         1 UNK         0.2984 
     87 H87       -74.7703   29.3490  -74.6942 H         1 UNK         0.0554 
     88 H88       -73.8092   30.1592  -76.8773 H         1 UNK         0.0847 
     89 H89       -72.4283   30.8152  -76.0047 H         1 UNK         0.0847 
     90 H90       -74.0496   31.4413  -75.7108 H         1 UNK         0.0847 
     91 H91       -73.8726   27.4110  -75.1798 H         1 UNK         0.3141 
     92 H92       -70.6603   26.2807  -76.2542 H         1 UNK         0.0743 
     93 H93       -72.4924   25.5518  -73.9056 H         1 UNK         0.0784 
     94 H94       -71.2931   24.4938  -74.6472 H         1 UNK         0.0784 
     95 H95       -70.7821   25.9433  -73.7956 H         1 UNK         0.0784 
     96 H96       -73.5786   25.6213  -76.1927 H         1 UNK         0.3213 
     97 H97       -73.7103   25.2394  -79.6892 H         1 UNK         0.0855 
     98 H98       -73.6888   22.9124  -77.6864 H         1 UNK         0.0814 
     99 H99       -72.7181   23.0091  -79.1498 H         1 UNK         0.0814 
    100 H100      -74.4675   22.9037  -79.2688 H         1 UNK         0.0814 
    101 H101      -75.5587   24.5381  -77.6153 H         1 UNK         0.3105 
    102 H102      -76.7087   27.7328  -76.7953 H         1 UNK         0.0547 
    103 H103      -77.9465   27.4393  -78.9499 H         1 UNK         0.0837 
    104 H104      -78.1859   25.7342  -78.5898 H         1 UNK         0.0837 
    105 H105      -78.9412   26.9659  -77.5822 H         1 UNK         0.0837 
    106 H106      -77.9060   25.3368  -76.0921 H         1 UNK         0.3020 
    107 H107      -75.7322   24.2830  -73.4537 H         1 UNK         0.1245 
    108 H108      -78.4386   24.4757  -72.8670 H         1 UNK         0.0781 
    109 H109      -78.2130   26.0290  -73.5680 H         1 UNK         0.0781 
    110 H110      -75.1352   26.6926  -72.6758 H         1 UNK         0.0836 
    111 H111      -75.1066   27.0554  -70.9961 H         1 UNK         0.0836 
    112 H112      -78.1082   23.3129  -74.8444 H         1 UNK         0.3022 
    113 H113      -76.4403   20.9183  -76.7688 H         1 UNK         0.0747 
    114 H114      -77.6940   19.1849  -75.4986 H         1 UNK         0.0793 
    115 H115      -76.2845   19.7064  -74.5919 H         1 UNK         0.0793 
    116 H116      -77.8795   20.2856  -74.1320 H         1 UNK         0.0793 
    117 H117      -79.1956   21.2870  -75.9761 H         1 UNK         0.3047 
    118 H118      -79.9634   23.7556  -78.4242 H         1 UNK         0.0822 
    119 H119      -81.6774   22.0857  -79.0441 H         1 UNK         0.0807 
    120 H120      -80.8093   20.8178  -78.1778 H         1 UNK         0.0807 
    121 H121      -80.1039   21.5541  -79.6101 H         1 UNK         0.0807 
    122 H122      -81.6935   22.5765  -76.5715 H         1 UNK         0.2946 
    123 H123      -82.5568   24.1500  -74.9641 H         1 UNK         0.1144 
    124 H124      -81.5351   22.1501  -73.8998 H         1 UNK         0.0793 
    125 H125      -82.0045   23.2949  -72.6569 H         1 UNK         0.0793 
    126 H126      -80.3118   23.1356  -73.1158 H         1 UNK         0.0793 
    127 H127      -80.6271   25.6245  -73.2643 H         1 UNK         0.2896 
@<TRIPOS>BOND
     1    1    2 1    
     2    1   67 1    
     3    1   68 1    
     4    1   69 1    
     5    2    3 2    
     6    2    4 am   BACKBONE|DICT|INTERRES
     7    4    5 1    
     8    4   70 1    
     9    5    6 1    
    10    5   65 1    
    11    5   71 1    
    12    6    7 1    
    13    6   72 1    
    14    6   73 1    
    15    7    8 1    
    16    8    9 1    
    17    8   74 1    
    18    8   75 1    
    19    9   10 ar   
    20    9   14 ar   
    21   10   11 ar   
    22   10   76 1    
    23   11   12 ar   
    24   11   48 1    
    25   12   13 ar   
    26   12   77 1    
    27   13   14 ar   
    28   13   15 1    
    29   14   78 1    
    30   15   16 1    
    31   15   79 1    
    32   15   80 1    
    33   16   17 1    
    34   17   18 1    
    35   17   81 1    
    36   17   82 1    
    37   18   19 1    
    38   18   22 1    
    39   18   83 1    
    40   19   20 am   BACKBONE|DICT|INTERRES
    41   19   21 2    
    42   20   84 1    
    43   20   85 1    
    44   22   23 am   BACKBONE|DICT|INTERRES
    45   22   86 1    
    46   23   24 2    
    47   23   25 1    
    48   25   26 1    
    49   25   27 1    
    50   25   87 1    
    51   26   88 1    
    52   26   89 1    
    53   26   90 1    
    54   27   28 am   BACKBONE|DICT|INTERRES
    55   27   91 1    
    56   28   29 2    
    57   28   30 1    
    58   30   31 1    
    59   30   32 1    
    60   30   92 1    
    61   31   93 1    
    62   31   94 1    
    63   31   95 1    
    64   32   33 am   BACKBONE|DICT|INTERRES
    65   32   96 1    
    66   33   34 2    
    67   33   35 1    
    68   35   36 1    
    69   35   37 1    
    70   35   97 1    
    71   36   98 1    
    72   36   99 1    
    73   36  100 1    
    74   37   38 am   BACKBONE|DICT|INTERRES
    75   37  101 1    
    76   38   39 2    
    77   38   40 1    
    78   40   41 1    
    79   40   42 1    
    80   40  102 1    
    81   41  103 1    
    82   41  104 1    
    83   41  105 1    
    84   42   43 am   BACKBONE|DICT|INTERRES
    85   42  106 1    
    86   43   44 2    
    87   43   45 1    
    88   45   46 1    
    89   45   49 1    
    90   45  107 1    
    91   46   47 1    
    92   46  108 1    
    93   46  109 1    
    94   47   48 1    
    95   48  110 1    
    96   48  111 1    
    97   49   50 am   BACKBONE|DICT|INTERRES
    98   49  112 1    
    99   50   51 2    
   100   50   52 1    
   101   52   53 1    
   102   52   54 1    
   103   52  113 1    
   104   53  114 1    
   105   53  115 1    
   106   53  116 1    
   107   54   55 am   BACKBONE|DICT|INTERRES
   108   54  117 1    
   109   55   56 2    
   110   55   57 1    
   111   57   58 1    
   112   57   59 1    
   113   57  118 1    
   114   58  119 1    
   115   58  120 1    
   116   58  121 1    
   117   59   60 am   BACKBONE|DICT|INTERRES
   118   59  122 1    
   119   60   61 2    
   120   60   62 1    
   121   62   63 1    
   122   62   64 1    
   123   62  123 1    
   124   63  124 1    
   125   63  125 1    
   126   63  126 1    
   127   64   65 am   BACKBONE|DICT|INTERRES
   128   64  127 1    
   129   65   66 2    
@<TRIPOS>SUBSTRUCTURE
     1 UNK         1 GROUP             0       ****    0 ROOT    
