@<TRIPOS>MOLECULE
3R135
127   129    1
SMALL
USER_CHARGES


@<TRIPOS>ATOM
      1 CA        -76.7111   25.7222  -71.8549 C.3       0 UNK        -0.1998 
      2 C         -78.1780   25.3462  -71.7111 C.2       0 UNK         0.4909 
      3 O         -78.4848   24.2345  -71.2811 O.2       0 UNK        -0.5240 
      4 N         -79.0863   26.2637  -72.0598 N.am      1 UNK        -0.4739 
      5 CA        -80.5354   26.0414  -72.0373 C.3       1 UNK         0.0864 
      6 C6        -81.3161   27.3748  -71.9331 C.3       11 UNK        -0.0881 
      7 S7        -80.9208   28.2804  -70.3980 S.3       11 UNK        -0.2682 
      8 C8        -80.3633   29.8972  -71.0282 C.3       11 UNK         0.0289 
      9 C9        -79.0525   29.8147  -71.8001 C.ar      11 UNK        -0.0687 
     10 C10       -79.0205   30.1075  -73.1680 C.ar      11 UNK        -0.0823 
     11 C11       -77.8151   30.0626  -73.8768 C.ar      11 UNK        -0.0830 
     12 C12       -76.6366   29.7321  -73.2047 C.ar      11 UNK        -0.1021 
     13 C13       -76.6520   29.4579  -71.8359 C.ar      11 UNK        -0.0753 
     14 C14       -77.8627   29.4933  -71.1379 C.ar      11 UNK        -0.0933 
     15 C15       -75.3471   29.1643  -71.1176 C.3       11 UNK         0.0166 
     16 S16       -74.5454   30.7217  -70.6307 S.3       11 UNK        -0.2615 
     17 C17       -72.7828   30.2578  -70.6338 C.3       11 UNK        -0.0865 
     18 CA        -72.0247   30.8532  -71.8501 C.3       10 UNK         0.0862 
     19 C         -70.4932   30.6612  -71.6806 C.2       10 UNK         0.5551 
     20 N         -69.7461   31.7368  -71.4734 N.am      10 UNK        -0.7319 
     21 O         -69.9903   29.5401  -71.6830 O.2       10 UNK        -0.5018 
     22 N         -72.5076   30.2928  -73.1220 N.am      10 UNK        -0.4509 
     23 C         -72.1941   30.7585  -74.3395 C.2       10 UNK         0.4899 
     24 O         -71.5440   31.7888  -74.5243 O.2       10 UNK        -0.4839 
     25 CA        -72.7064   29.9509  -75.5558 C.3       9 UNK         0.0222 
     26 CB        -71.8571   30.1815  -76.8233 C.3       9 UNK        -0.1966 
     27 N         -72.8669   28.5110  -75.3075 N.am      9 UNK        -0.4218 
     28 C         -71.9275   27.6539  -74.8742 C.2       9 UNK         0.5020 
     29 O         -70.7546   27.9580  -74.6570 O.2       9 UNK        -0.5274 
     30 CA        -72.3866   26.2124  -74.6167 C.3       8 UNK         0.0270 
     31 CB        -73.3797   26.1519  -73.4418 C.3       8 UNK        -0.1976 
     32 N         -72.9872   25.5986  -75.7987 N.am      8 UNK        -0.4313 
     33 C         -72.3195   25.2326  -76.9011 C.2       8 UNK         0.5041 
     34 O         -71.1052   25.3726  -77.0522 O.2       8 UNK        -0.5577 
     35 CA        -73.1476   24.5876  -78.0225 C.3       7 UNK         0.0284 
     36 CB        -73.4632   23.1176  -77.6974 C.3       7 UNK        -0.1958 
     37 N         -74.3920   25.3184  -78.2608 N.am      7 UNK        -0.4454 
     38 C         -74.4825   26.4318  -79.0002 C.2       7 UNK         0.5089 
     39 O         -73.5341   26.9322  -79.6055 O.2       7 UNK        -0.5125 
     40 CA        -75.8660   27.1003  -79.0942 C.3       6 UNK         0.0408 
     41 CB        -76.6042   26.6275  -80.3564 C.3       6 UNK        -0.1791 
     42 N         -76.7185   26.8674  -77.9260 N.am      6 UNK        -0.4762 
     43 C         -76.4856   27.3670  -76.7041 C.2       6 UNK         0.5007 
     44 O         -75.4925   28.0332  -76.4060 O.2       6 UNK        -0.5032 
     45 CA        -77.5078   27.0012  -75.6090 C.3       5 UNK         0.0783 
     46 C46       -78.8607   27.7649  -75.7250 C.3       11 UNK        -0.0857 
     47 S47       -78.9102   29.4641  -76.4048 S.3       11 UNK        -0.2512 
     48 C48       -77.7573   30.4148  -75.3581 C.3       11 UNK         0.0225 
     49 N         -77.7502   25.5529  -75.5213 N.am      5 UNK        -0.4615 
     50 C         -76.8289   24.5788  -75.4906 C.2       4 UNK         0.5053 
     51 O         -75.6187   24.7919  -75.4695 O.2       4 UNK        -0.5105 
     52 CA        -77.3067   23.1168  -75.5154 C.3       4 UNK         0.0263 
     53 CB        -77.1182   22.4528  -74.1441 C.3       4 UNK        -0.1981 
     54 N         -78.6901   22.9281  -75.9540 N.am      4 UNK        -0.4224 
     55 C         -79.1615   23.1510  -77.1863 C.2       3 UNK         0.4895 
     56 O         -78.4754   23.5987  -78.1062 O.2       3 UNK        -0.5091 
     57 CA        -80.6482   22.8328  -77.4417 C.3       3 UNK         0.0250 
     58 CB        -80.8465   21.3382  -77.7616 C.3       3 UNK        -0.1996 
     59 N         -81.5678   23.2881  -76.3857 N.am      3 UNK        -0.4254 
     60 C         -81.6667   22.8781  -75.1117 C.2       2 UNK         0.5004 
     61 O         -80.9871   21.9774  -74.6142 O.2       2 UNK        -0.5226 
     62 CA        -82.6579   23.6539  -74.2241 C.3       2 UNK         0.0269 
     63 CB        -83.7046   22.7046  -73.6169 C.3       2 UNK        -0.1926 
     64 N         -82.0030   24.4055  -73.1438 N.am      2 UNK        -0.4687 
     65 C         -80.9784   25.2596  -73.2903 C.2       1 UNK         0.5165 
     66 O         -80.4251   25.4823  -74.3690 O.2       1 UNK        -0.5079 
     67 H67       -76.2522   25.8283  -70.8724 H         1 UNK         0.0900 
     68 H68       -76.1751   24.9458  -72.3997 H         1 UNK         0.0900 
     69 H69       -76.5842   26.6587  -72.3939 H         1 UNK         0.0900 
     70 H70       -78.7914   27.1737  -72.3826 H         1 UNK         0.2959 
     71 H71       -80.7766   25.4374  -71.1593 H         1 UNK         0.1079 
     72 H72       -81.1196   28.0065  -72.8014 H         1 UNK         0.0837 
     73 H73       -82.3920   27.1892  -71.9339 H         1 UNK         0.0837 
     74 H74       -80.2314   30.5738  -70.1828 H         1 UNK         0.0685 
     75 H75       -81.1534   30.3311  -71.6432 H         1 UNK         0.0685 
     76 H76       -79.9317   30.3775  -73.6844 H         1 UNK         0.1434 
     77 H77       -75.6972   29.7170  -73.7408 H         1 UNK         0.1329 
     78 H78       -77.8790   29.2894  -70.0758 H         1 UNK         0.1335 
     79 H79       -74.6926   28.5889  -71.7732 H         1 UNK         0.0680 
     80 H80       -75.5198   28.5500  -70.2325 H         1 UNK         0.0680 
     81 H81       -72.6719   29.1724  -70.5936 H         1 UNK         0.1032 
     82 H82       -72.3540   30.6336  -69.7024 H         1 UNK         0.1032 
     83 H83       -72.2310   31.9256  -71.8746 H         1 UNK         0.0461 
     84 H84       -68.7525   31.6270  -71.3430 H         1 UNK         0.3453 
     85 H85       -70.1534   32.6592  -71.4680 H         1 UNK         0.3453 
     86 H86       -73.0209   29.4289  -73.0610 H         1 UNK         0.2984 
     87 H87       -73.7090   30.3286  -75.7618 H         1 UNK         0.0554 
     88 H88       -71.8471   31.2349  -77.1055 H         1 UNK         0.0847 
     89 H89       -72.2545   29.6244  -77.6721 H         1 UNK         0.0847 
     90 H90       -70.8215   29.8734  -76.6754 H         1 UNK         0.0847 
     91 H91       -73.7918   28.1459  -75.5258 H         1 UNK         0.3141 
     92 H92       -71.5069   25.6257  -74.3434 H         1 UNK         0.0743 
     93 H93       -72.9554   26.6059  -72.5452 H         1 UNK         0.0784 
     94 H94       -74.3108   26.6726  -73.6681 H         1 UNK         0.0784 
     95 H95       -73.6309   25.1204  -73.1937 H         1 UNK         0.0784 
     96 H96       -73.9849   25.3919  -75.7454 H         1 UNK         0.3213 
     97 H97       -72.5473   24.6061  -78.9352 H         1 UNK         0.0855 
     98 H98       -74.0542   23.0162  -76.7867 H         1 UNK         0.0814 
     99 H99       -72.5446   22.5476  -77.5521 H         1 UNK         0.0814 
    100 H100      -74.0139   22.6417  -78.5089 H         1 UNK         0.0814 
    101 H101      -75.2118   25.0096  -77.7571 H         1 UNK         0.3105 
    102 H102      -75.7030   28.1770  -79.1785 H         1 UNK         0.0547 
    103 H103      -76.8270   25.5602  -80.3179 H         1 UNK         0.0837 
    104 H104      -76.0031   26.8034  -81.2497 H         1 UNK         0.0837 
    105 H105      -77.5443   27.1627  -80.4909 H         1 UNK         0.0837 
    106 H106      -77.5373   26.2902  -78.0632 H         1 UNK         0.3020 
    107 H107      -77.0444   27.2924  -74.6664 H         1 UNK         0.1245 
    108 H108      -79.3438   27.7877  -74.7488 H         1 UNK         0.0781 
    109 H109      -79.5387   27.1918  -76.3599 H         1 UNK         0.0781 
    110 H110      -77.9818   31.4759  -75.4727 H         1 UNK         0.0836 
    111 H111      -76.7473   30.2832  -75.7480 H         1 UNK         0.0836 
    112 H112      -78.7258   25.2836  -75.4415 H         1 UNK         0.3022 
    113 H113      -76.6647   22.5961  -76.2288 H         1 UNK         0.0747 
    114 H114      -77.8208   22.8450  -73.4103 H         1 UNK         0.0793 
    115 H115      -77.2708   21.3751  -74.2047 H         1 UNK         0.0793 
    116 H116      -76.1105   22.6149  -73.7584 H         1 UNK         0.0793 
    117 H117      -79.3491   22.5592  -75.2714 H         1 UNK         0.3047 
    118 H118      -80.9309   23.3940  -78.3340 H         1 UNK         0.0822 
    119 H119      -81.8833   21.1223  -78.0194 H         1 UNK         0.0807 
    120 H120      -80.5694   20.6984  -76.9233 H         1 UNK         0.0807 
    121 H121      -80.2323   21.0388  -78.6120 H         1 UNK         0.0807 
    122 H122      -82.1464   24.0713  -76.6574 H         1 UNK         0.2946 
    123 H123      -83.1859   24.3805  -74.8454 H         1 UNK         0.1144 
    124 H124      -84.4679   23.2530  -73.0645 H         1 UNK         0.0793 
    125 H125      -83.2487   21.9843  -72.9362 H         1 UNK         0.0793 
    126 H126      -84.2159   22.1372  -74.3959 H         1 UNK         0.0793 
    127 H127      -82.3888   24.2730  -72.2201 H         1 UNK         0.2896 
@<TRIPOS>BOND
     1    1    2 1    
     2    1   67 1    
     3    1   68 1    
     4    1   69 1    
     5    2    3 2    
     6    2    4 am   BACKBONE|DICT|INTERRES
     7    4    5 1    
     8    4   70 1    
     9    5    6 1    
    10    5   65 1    
    11    5   71 1    
    12    6    7 1    
    13    6   72 1    
    14    6   73 1    
    15    7    8 1    
    16    8    9 1    
    17    8   74 1    
    18    8   75 1    
    19    9   10 ar   
    20    9   14 ar   
    21   10   11 ar   
    22   10   76 1    
    23   11   12 ar   
    24   11   48 1    
    25   12   13 ar   
    26   12   77 1    
    27   13   14 ar   
    28   13   15 1    
    29   14   78 1    
    30   15   16 1    
    31   15   79 1    
    32   15   80 1    
    33   16   17 1    
    34   17   18 1    
    35   17   81 1    
    36   17   82 1    
    37   18   19 1    
    38   18   22 1    
    39   18   83 1    
    40   19   20 am   BACKBONE|DICT|INTERRES
    41   19   21 2    
    42   20   84 1    
    43   20   85 1    
    44   22   23 am   BACKBONE|DICT|INTERRES
    45   22   86 1    
    46   23   24 2    
    47   23   25 1    
    48   25   26 1    
    49   25   27 1    
    50   25   87 1    
    51   26   88 1    
    52   26   89 1    
    53   26   90 1    
    54   27   28 am   BACKBONE|DICT|INTERRES
    55   27   91 1    
    56   28   29 2    
    57   28   30 1    
    58   30   31 1    
    59   30   32 1    
    60   30   92 1    
    61   31   93 1    
    62   31   94 1    
    63   31   95 1    
    64   32   33 am   BACKBONE|DICT|INTERRES
    65   32   96 1    
    66   33   34 2    
    67   33   35 1    
    68   35   36 1    
    69   35   37 1    
    70   35   97 1    
    71   36   98 1    
    72   36   99 1    
    73   36  100 1    
    74   37   38 am   BACKBONE|DICT|INTERRES
    75   37  101 1    
    76   38   39 2    
    77   38   40 1    
    78   40   41 1    
    79   40   42 1    
    80   40  102 1    
    81   41  103 1    
    82   41  104 1    
    83   41  105 1    
    84   42   43 am   BACKBONE|DICT|INTERRES
    85   42  106 1    
    86   43   44 2    
    87   43   45 1    
    88   45   46 1    
    89   45   49 1    
    90   45  107 1    
    91   46   47 1    
    92   46  108 1    
    93   46  109 1    
    94   47   48 1    
    95   48  110 1    
    96   48  111 1    
    97   49   50 am   BACKBONE|DICT|INTERRES
    98   49  112 1    
    99   50   51 2    
   100   50   52 1    
   101   52   53 1    
   102   52   54 1    
   103   52  113 1    
   104   53  114 1    
   105   53  115 1    
   106   53  116 1    
   107   54   55 am   BACKBONE|DICT|INTERRES
   108   54  117 1    
   109   55   56 2    
   110   55   57 1    
   111   57   58 1    
   112   57   59 1    
   113   57  118 1    
   114   58  119 1    
   115   58  120 1    
   116   58  121 1    
   117   59   60 am   BACKBONE|DICT|INTERRES
   118   59  122 1    
   119   60   61 2    
   120   60   62 1    
   121   62   63 1    
   122   62   64 1    
   123   62  123 1    
   124   63  124 1    
   125   63  125 1    
   126   63  126 1    
   127   64   65 am   BACKBONE|DICT|INTERRES
   128   64  127 1    
   129   65   66 2    
@<TRIPOS>SUBSTRUCTURE
     1 UNK         1 GROUP             0       ****    0 ROOT    
