@<TRIPOS>MOLECULE
3R135
127   129    1
SMALL
USER_CHARGES


@<TRIPOS>ATOM
      1 CA        -85.9447   29.1054  -74.2115 C.3       0 UNK        -0.1998 
      2 C         -84.4436   29.3415  -74.2881 C.2       0 UNK         0.4909 
      3 O         -83.9060   29.5133  -75.3827 O.2       0 UNK        -0.5240 
      4 N         -83.7649   29.3610  -73.1342 N.am      1 UNK        -0.4739 
      5 CA        -82.3094   29.4976  -73.0271 C.3       1 UNK         0.0864 
      6 C6        -81.8992   29.9261  -71.5959 C.3       11 UNK        -0.0881 
      7 S7        -80.2242   30.6547  -71.5208 S.3       11 UNK        -0.2682 
      8 C8        -79.4569   29.7399  -70.1433 C.3       11 UNK         0.0289 
      9 C9        -78.4462   28.7019  -70.6155 C.ar      11 UNK        -0.0687 
     10 C10       -78.8018   27.3523  -70.7315 C.ar      11 UNK        -0.0823 
     11 C11       -77.8427   26.3892  -71.0743 C.ar      11 UNK        -0.0830 
     12 C12       -76.5256   26.7929  -71.3075 C.ar      11 UNK        -0.1021 
     13 C13       -76.1624   28.1379  -71.2141 C.ar      11 UNK        -0.0753 
     14 C14       -77.1264   29.0891  -70.8704 C.ar      11 UNK        -0.0933 
     15 C15       -74.7161   28.5422  -71.4503 C.3       11 UNK         0.0166 
     16 S16       -74.2565   28.3817  -73.1997 S.3       11 UNK        -0.2615 
     17 C17       -74.8391   29.9723  -73.8761 C.3       11 UNK        -0.0865 
     18 CA        -74.6646   30.0665  -75.4227 C.3       10 UNK         0.0862 
     19 C         -75.1709   31.4085  -76.0358 C.2       10 UNK         0.5551 
     20 N         -76.2209   32.0077  -75.4883 N.am      10 UNK        -0.7319 
     21 O         -74.6573   31.8915  -77.0437 O.2       10 UNK        -0.5018 
     22 N         -73.3092   29.6930  -75.8641 N.am      10 UNK        -0.4509 
     23 C         -72.1731   30.3476  -75.5917 C.2       10 UNK         0.4899 
     24 O         -72.1086   31.3932  -74.9418 O.2       10 UNK        -0.4839 
     25 CA        -70.8932   29.6869  -76.1335 C.3       9 UNK         0.0222 
     26 CB        -69.6141   30.5124  -75.8735 C.3       9 UNK        -0.1966 
     27 N         -70.7557   28.3056  -75.6543 N.am      9 UNK        -0.4218 
     28 C         -70.5500   27.8743  -74.3989 C.2       9 UNK         0.5020 
     29 O         -70.3655   28.6274  -73.4414 O.2       9 UNK        -0.5274 
     30 CA        -70.5348   26.3442  -74.1620 C.3       8 UNK         0.0270 
     31 CB        -71.0822   25.9694  -72.7718 C.3       8 UNK        -0.1976 
     32 N         -71.2788   25.5890  -75.1756 N.am      8 UNK        -0.4313 
     33 C         -70.8152   25.2419  -76.3862 C.2       8 UNK         0.5041 
     34 O         -69.6584   25.4497  -76.7514 O.2       8 UNK        -0.5577 
     35 CA        -71.8108   24.6158  -77.3851 C.3       7 UNK         0.0284 
     36 CB        -71.6291   23.0907  -77.4394 C.3       7 UNK        -0.1958 
     37 N         -73.2151   24.9170  -77.0950 N.am      7 UNK        -0.4454 
     38 C         -73.7554   26.1414  -77.0057 C.2       7 UNK         0.5089 
     39 O         -73.1539   27.1776  -77.2931 O.2       7 UNK        -0.5125 
     40 CA        -75.1869   26.2411  -76.4496 C.3       6 UNK         0.0408 
     41 CB        -76.1554   26.6476  -77.5706 C.3       6 UNK        -0.1791 
     42 N         -75.6745   25.0303  -75.7713 N.am      6 UNK        -0.4762 
     43 C         -75.1242   24.4784  -74.6725 C.2       6 UNK         0.5007 
     44 O         -74.1186   24.9338  -74.1262 O.2       6 UNK        -0.5032 
     45 CA        -75.7375   23.1717  -74.1147 C.3       5 UNK         0.0783 
     46 C46       -76.4105   23.3812  -72.7326 C.3       11 UNK        -0.0857 
     47 S47       -78.0400   24.2104  -72.8168 S.3       11 UNK        -0.2512 
     48 C48       -78.2150   24.9112  -71.1416 C.3       11 UNK         0.0225 
     49 N         -76.6409   22.4926  -75.0455 N.am      5 UNK        -0.4615 
     50 C         -76.3175   21.9528  -76.2272 C.2       4 UNK         0.5053 
     51 O         -75.1647   21.8785  -76.6528 O.2       4 UNK        -0.5105 
     52 CA        -77.4937   21.4639  -77.0980 C.3       4 UNK         0.0263 
     53 CB        -77.6881   19.9481  -76.9357 C.3       4 UNK        -0.1981 
     54 N         -78.7630   22.1521  -76.8098 N.am      4 UNK        -0.4224 
     55 C         -78.9636   23.4712  -76.9566 C.2       3 UNK         0.4895 
     56 O         -78.1092   24.2279  -77.4152 O.2       3 UNK        -0.5091 
     57 CA        -80.2899   24.0685  -76.4590 C.3       3 UNK         0.0250 
     58 CB        -81.2757   23.0308  -75.8830 C.3       3 UNK        -0.1996 
     59 N         -79.9735   25.0488  -75.4204 N.am      3 UNK        -0.4254 
     60 C         -80.0526   26.3783  -75.5446 C.2       2 UNK         0.5004 
     61 O         -80.4779   26.9632  -76.5437 O.2       2 UNK        -0.5226 
     62 CA        -79.5394   27.1923  -74.3450 C.3       2 UNK         0.0269 
     63 CB        -78.1176   27.7199  -74.5874 C.3       2 UNK        -0.1926 
     64 N         -80.4128   28.3146  -74.0201 N.am      2 UNK        -0.4687 
     65 C         -81.6082   28.1868  -73.4345 C.2       1 UNK         0.5165 
     66 O         -82.1243   27.1006  -73.1544 O.2       1 UNK        -0.5079 
     67 H67       -86.2114   28.2061  -74.7661 H         1 UNK         0.0900 
     68 H68       -86.2868   28.9838  -73.1839 H         1 UNK         0.0900 
     69 H69       -86.4800   29.9475  -74.6494 H         1 UNK         0.0900 
     70 H70       -84.2539   29.1796  -72.2692 H         1 UNK         0.2959 
     71 H71       -82.0054   30.2824  -73.7243 H         1 UNK         0.1079 
     72 H72       -82.5837   30.6935  -71.2304 H         1 UNK         0.0837 
     73 H73       -81.9953   29.0912  -70.8992 H         1 UNK         0.0837 
     74 H74       -80.2163   29.2750  -69.5136 H         1 UNK         0.0685 
     75 H75       -78.9514   30.4613  -69.4995 H         1 UNK         0.0685 
     76 H76       -79.8207   27.0510  -70.5297 H         1 UNK         0.1434 
     77 H77       -75.7709   26.0650  -71.5655 H         1 UNK         0.1329 
     78 H78       -76.8463   30.1295  -70.7777 H         1 UNK         0.1335 
     79 H79       -74.0657   27.8953  -70.8600 H         1 UNK         0.0680 
     80 H80       -74.5266   29.5607  -71.1081 H         1 UNK         0.0680 
     81 H81       -75.8875   30.0841  -73.5976 H         1 UNK         0.1032 
     82 H82       -74.2977   30.7805  -73.3813 H         1 UNK         0.1032 
     83 H83       -75.3167   29.3149  -75.8659 H         1 UNK         0.0461 
     84 H84       -76.6847   31.6283  -74.6794 H         1 UNK         0.3453 
     85 H85       -76.5583   32.8639  -75.8996 H         1 UNK         0.3453 
     86 H86       -73.2489   28.8425  -76.4174 H         1 UNK         0.2984 
     87 H87       -71.0183   29.6189  -77.2153 H         1 UNK         0.0554 
     88 H88       -69.6884   31.4963  -76.3380 H         1 UNK         0.0847 
     89 H89       -68.7339   30.0227  -76.2898 H         1 UNK         0.0847 
     90 H90       -69.4378   30.6726  -74.8096 H         1 UNK         0.0847 
     91 H91       -70.9236   27.5952  -76.3541 H         1 UNK         0.3141 
     92 H92       -69.4883   26.0349  -74.1977 H         1 UNK         0.0743 
     93 H93       -70.5006   26.4380  -71.9769 H         1 UNK         0.0784 
     94 H94       -72.1182   26.2875  -72.6500 H         1 UNK         0.0784 
     95 H95       -71.0425   24.8927  -72.6065 H         1 UNK         0.0784 
     96 H96       -72.2504   25.3918  -74.9528 H         1 UNK         0.3213 
     97 H97       -71.5839   25.0278  -78.3706 H         1 UNK         0.0855 
     98 H98       -71.8701   22.6216  -76.4844 H         1 UNK         0.0814 
     99 H99       -70.5984   22.8278  -77.6820 H         1 UNK         0.0814 
    100 H100      -72.2649   22.6412  -78.2026 H         1 UNK         0.0814 
    101 H101      -73.8037   24.1316  -76.8513 H         1 UNK         0.3105 
    102 H102      -75.1789   27.0335  -75.7020 H         1 UNK         0.0547 
    103 H103      -76.1839   25.9009  -78.3650 H         1 UNK         0.0837 
    104 H104      -75.8549   27.5931  -78.0241 H         1 UNK         0.0837 
    105 H105      -77.1717   26.7775  -77.2010 H         1 UNK         0.0837 
    106 H106      -76.4869   24.5872  -76.1886 H         1 UNK         0.3020 
    107 H107      -74.8881   22.5018  -73.9618 H         1 UNK         0.1245 
    108 H108      -75.7435   23.9174  -72.0572 H         1 UNK         0.0781 
    109 H109      -76.5685   22.4092  -72.2627 H         1 UNK         0.0781 
    110 H110      -77.6056   24.3479  -70.4335 H         1 UNK         0.0836 
    111 H111      -79.2491   24.7695  -70.8239 H         1 UNK         0.0836 
    112 H112      -77.6140   22.5018  -74.7793 H         1 UNK         0.3022 
    113 H113      -77.2332   21.6684  -78.1387 H         1 UNK         0.0747 
    114 H114      -78.4589   19.5720  -77.6086 H         1 UNK         0.0793 
    115 H115      -76.7678   19.4100  -77.1681 H         1 UNK         0.0793 
    116 H116      -77.9717   19.6832  -75.9163 H         1 UNK         0.0793 
    117 H117      -79.5109   21.5887  -76.4310 H         1 UNK         0.3047 
    118 H118      -80.7633   24.5537  -77.3151 H         1 UNK         0.0822 
    119 H119      -82.2005   23.5135  -75.5659 H         1 UNK         0.0807 
    120 H120      -80.8690   22.5091  -75.0154 H         1 UNK         0.0807 
    121 H121      -81.5511   22.2853  -76.6303 H         1 UNK         0.0807 
    122 H122      -79.5681   24.6759  -74.5716 H         1 UNK         0.2946 
    123 H123      -79.5165   26.5467  -73.4667 H         1 UNK         0.1144 
    124 H124      -78.0566   28.3341  -75.4864 H         1 UNK         0.0793 
    125 H125      -77.4189   26.8921  -74.6963 H         1 UNK         0.0793 
    126 H126      -77.7673   28.3169  -73.7458 H         1 UNK         0.0793 
    127 H127      -80.0570   29.2382  -74.2177 H         1 UNK         0.2896 
@<TRIPOS>BOND
     1    1    2 1    
     2    1   67 1    
     3    1   68 1    
     4    1   69 1    
     5    2    3 2    
     6    2    4 am   BACKBONE|DICT|INTERRES
     7    4    5 1    
     8    4   70 1    
     9    5    6 1    
    10    5   65 1    
    11    5   71 1    
    12    6    7 1    
    13    6   72 1    
    14    6   73 1    
    15    7    8 1    
    16    8    9 1    
    17    8   74 1    
    18    8   75 1    
    19    9   10 ar   
    20    9   14 ar   
    21   10   11 ar   
    22   10   76 1    
    23   11   12 ar   
    24   11   48 1    
    25   12   13 ar   
    26   12   77 1    
    27   13   14 ar   
    28   13   15 1    
    29   14   78 1    
    30   15   16 1    
    31   15   79 1    
    32   15   80 1    
    33   16   17 1    
    34   17   18 1    
    35   17   81 1    
    36   17   82 1    
    37   18   19 1    
    38   18   22 1    
    39   18   83 1    
    40   19   20 am   BACKBONE|DICT|INTERRES
    41   19   21 2    
    42   20   84 1    
    43   20   85 1    
    44   22   23 am   BACKBONE|DICT|INTERRES
    45   22   86 1    
    46   23   24 2    
    47   23   25 1    
    48   25   26 1    
    49   25   27 1    
    50   25   87 1    
    51   26   88 1    
    52   26   89 1    
    53   26   90 1    
    54   27   28 am   BACKBONE|DICT|INTERRES
    55   27   91 1    
    56   28   29 2    
    57   28   30 1    
    58   30   31 1    
    59   30   32 1    
    60   30   92 1    
    61   31   93 1    
    62   31   94 1    
    63   31   95 1    
    64   32   33 am   BACKBONE|DICT|INTERRES
    65   32   96 1    
    66   33   34 2    
    67   33   35 1    
    68   35   36 1    
    69   35   37 1    
    70   35   97 1    
    71   36   98 1    
    72   36   99 1    
    73   36  100 1    
    74   37   38 am   BACKBONE|DICT|INTERRES
    75   37  101 1    
    76   38   39 2    
    77   38   40 1    
    78   40   41 1    
    79   40   42 1    
    80   40  102 1    
    81   41  103 1    
    82   41  104 1    
    83   41  105 1    
    84   42   43 am   BACKBONE|DICT|INTERRES
    85   42  106 1    
    86   43   44 2    
    87   43   45 1    
    88   45   46 1    
    89   45   49 1    
    90   45  107 1    
    91   46   47 1    
    92   46  108 1    
    93   46  109 1    
    94   47   48 1    
    95   48  110 1    
    96   48  111 1    
    97   49   50 am   BACKBONE|DICT|INTERRES
    98   49  112 1    
    99   50   51 2    
   100   50   52 1    
   101   52   53 1    
   102   52   54 1    
   103   52  113 1    
   104   53  114 1    
   105   53  115 1    
   106   53  116 1    
   107   54   55 am   BACKBONE|DICT|INTERRES
   108   54  117 1    
   109   55   56 2    
   110   55   57 1    
   111   57   58 1    
   112   57   59 1    
   113   57  118 1    
   114   58  119 1    
   115   58  120 1    
   116   58  121 1    
   117   59   60 am   BACKBONE|DICT|INTERRES
   118   59  122 1    
   119   60   61 2    
   120   60   62 1    
   121   62   63 1    
   122   62   64 1    
   123   62  123 1    
   124   63  124 1    
   125   63  125 1    
   126   63  126 1    
   127   64   65 am   BACKBONE|DICT|INTERRES
   128   64  127 1    
   129   65   66 2    
@<TRIPOS>SUBSTRUCTURE
     1 UNK         1 GROUP             0       ****    0 ROOT    
