@<TRIPOS>MOLECULE
3R135
127   129    1
SMALL
USER_CHARGES


@<TRIPOS>ATOM
      1 CA        -81.9796   24.3907  -68.9776 C.3       0 UNK        -0.1998 
      2 C         -82.6026   25.0106  -70.2195 C.2       0 UNK         0.4909 
      3 O         -83.7853   24.7922  -70.4862 O.2       0 UNK        -0.5240 
      4 N         -81.8175   25.7897  -70.9732 N.am      1 UNK        -0.4739 
      5 CA        -82.2264   26.4186  -72.2349 C.3       1 UNK         0.0864 
      6 C6        -81.2815   27.5777  -72.6376 C.3       11 UNK        -0.0881 
      7 S7        -81.1840   28.8898  -71.3729 S.3       11 UNK        -0.2682 
      8 C8        -79.3929   28.9053  -71.0033 C.3       11 UNK         0.0289 
      9 C9        -78.4717   29.2500  -72.1782 C.ar      11 UNK        -0.0687 
     10 C10       -78.9351   29.8612  -73.3520 C.ar      11 UNK        -0.0823 
     11 C11       -78.0649   30.1337  -74.4103 C.ar      11 UNK        -0.0830 
     12 C12       -76.7027   29.8605  -74.2639 C.ar      11 UNK        -0.1021 
     13 C13       -76.2263   29.2228  -73.1165 C.ar      11 UNK        -0.0753 
     14 C14       -77.1151   28.9235  -72.0789 C.ar      11 UNK        -0.0933 
     15 C15       -74.7794   28.7541  -73.0688 C.3       11 UNK         0.0166 
     16 S16       -73.9045   29.1909  -71.5336 S.3       11 UNK        -0.2615 
     17 C17       -72.4312   28.1200  -71.6987 C.3       11 UNK        -0.0865 
     18 CA        -71.1414   28.8821  -72.1009 C.3       10 UNK         0.0862 
     19 C         -69.9083   27.9297  -72.0981 C.2       10 UNK         0.5551 
     20 N         -69.1896   27.7496  -73.2013 N.am      10 UNK        -0.7319 
     21 O         -69.5906   27.3467  -71.0644 O.2       10 UNK        -0.5018 
     22 N         -71.3037   29.6308  -73.3575 N.am      10 UNK        -0.4509 
     23 C         -70.6160   30.7405  -73.6614 C.2       10 UNK         0.4899 
     24 O         -69.8516   31.2996  -72.8727 O.2       10 UNK        -0.4839 
     25 CA        -70.8080   31.3367  -75.0735 C.3       9 UNK         0.0222 
     26 CB        -69.5704   32.1266  -75.5513 C.3       9 UNK        -0.1966 
     27 N         -71.2161   30.3627  -76.0940 N.am      9 UNK        -0.4218 
     28 C         -70.5641   29.2511  -76.4645 C.2       9 UNK         0.5020 
     29 O         -69.4947   28.8715  -75.9806 O.2       9 UNK        -0.5274 
     30 CA        -71.2577   28.3985  -77.5411 C.3       8 UNK         0.0270 
     31 CB        -70.3798   28.2876  -78.7988 C.3       8 UNK        -0.1976 
     32 N         -71.6100   27.0533  -77.0767 N.am      8 UNK        -0.4313 
     33 C         -72.2671   26.7485  -75.9493 C.2       8 UNK         0.5041 
     34 O         -72.6293   27.5787  -75.1146 O.2       8 UNK        -0.5577 
     35 CA        -72.6360   25.2681  -75.7613 C.3       7 UNK         0.0284 
     36 CB        -72.7978   24.8931  -74.2771 C.3       7 UNK        -0.1958 
     37 N         -73.8845   24.9883  -76.4714 N.am      7 UNK        -0.4454 
     38 C         -73.9805   24.8088  -77.7983 C.2       7 UNK         0.5089 
     39 O         -73.0009   24.7339  -78.5420 O.2       7 UNK        -0.5125 
     40 CA        -75.3916   24.7102  -78.4138 C.3       6 UNK         0.0408 
     41 CB        -75.7353   23.2458  -78.7254 C.3       6 UNK        -0.1791 
     42 N         -76.4400   25.2974  -77.5713 N.am      6 UNK        -0.4762 
     43 C         -76.5536   26.6132  -77.3167 C.2       6 UNK         0.5007 
     44 O         -75.8433   27.4542  -77.8684 O.2       6 UNK        -0.5032 
     45 CA        -77.5664   27.0691  -76.2348 C.3       5 UNK         0.0783 
     46 C46       -78.6914   27.9959  -76.7745 C.3       11 UNK        -0.0857 
     47 S47       -78.1161   29.6879  -77.1776 S.3       11 UNK        -0.2512 
     48 C48       -78.6112   30.6822  -75.7238 C.3       11 UNK         0.0225 
     49 N         -78.1147   25.9573  -75.4498 N.am      5 UNK        -0.4615 
     50 C         -77.4078   25.2405  -74.5613 C.2       4 UNK         0.5053 
     51 O         -76.2309   25.4742  -74.2902 O.2       4 UNK        -0.5105 
     52 CA        -78.0917   24.0219  -73.9127 C.3       4 UNK         0.0263 
     53 CB        -78.5585   24.3562  -72.4880 C.3       4 UNK        -0.1981 
     54 N         -79.2106   23.4879  -74.6993 N.am      4 UNK        -0.4224 
     55 C         -79.0710   22.9500  -75.9227 C.2       3 UNK         0.4895 
     56 O         -77.9798   22.8100  -76.4735 O.2       3 UNK        -0.5091 
     57 CA        -80.3377   22.5351  -76.6933 C.3       3 UNK         0.0250 
     58 CB        -80.5411   21.0141  -76.6066 C.3       3 UNK        -0.1996 
     59 N         -81.5664   23.2087  -76.2673 N.am      3 UNK        -0.4254 
     60 C         -81.7862   24.5309  -76.2790 C.2       2 UNK         0.5004 
     61 O         -80.9548   25.3627  -76.6496 O.2       2 UNK        -0.5226 
     62 CA        -83.1403   25.0177  -75.7236 C.3       2 UNK         0.0269 
     63 CB        -84.1849   23.8953  -75.5222 C.3       2 UNK        -0.1926 
     64 N         -82.9729   25.7775  -74.4779 N.am      2 UNK        -0.4687 
     65 C         -82.3118   25.3842  -73.3774 C.2       1 UNK         0.5165 
     66 O         -81.7497   24.2893  -73.2686 O.2       1 UNK        -0.5079 
     67 H67       -82.5207   24.7091  -68.0871 H         1 UNK         0.0900 
     68 H68       -82.0291   23.3038  -69.0370 H         1 UNK         0.0900 
     69 H69       -80.9344   24.6761  -68.8597 H         1 UNK         0.0900 
     70 H70       -80.8549   25.9302  -70.7067 H         1 UNK         0.2959 
     71 H71       -83.2291   26.8285  -72.0926 H         1 UNK         0.1079 
     72 H72       -80.2815   27.2013  -72.8571 H         1 UNK         0.0837 
     73 H73       -81.6250   28.0514  -73.5591 H         1 UNK         0.0837 
     74 H74       -79.2153   29.6273  -70.2054 H         1 UNK         0.0685 
     75 H75       -79.1204   27.9282  -70.6013 H         1 UNK         0.0685 
     76 H76       -79.9809   30.1073  -73.4628 H         1 UNK         0.1434 
     77 H77       -76.0283   30.0676  -75.0840 H         1 UNK         0.1329 
     78 H78       -76.7488   28.4178  -71.1958 H         1 UNK         0.1335 
     79 H79       -74.7759   27.6714  -73.2014 H         1 UNK         0.0680 
     80 H80       -74.2206   29.1751  -73.9047 H         1 UNK         0.0680 
     81 H81       -72.2881   27.6263  -70.7356 H         1 UNK         0.1032 
     82 H82       -72.6300   27.3175  -72.4100 H         1 UNK         0.1032 
     83 H83       -70.9513   29.6054  -71.3056 H         1 UNK         0.0461 
     84 H84       -69.4252   28.2253  -74.0659 H         1 UNK         0.3453 
     85 H85       -68.3929   27.1342  -73.1724 H         1 UNK         0.3453 
     86 H86       -71.8701   29.1766  -74.0675 H         1 UNK         0.2984 
     87 H87       -71.6345   32.0432  -74.9860 H         1 UNK         0.0554 
     88 H88       -69.3430   32.9511  -74.8744 H         1 UNK         0.0847 
     89 H89       -69.7308   32.5585  -76.5390 H         1 UNK         0.0847 
     90 H90       -68.6833   31.4941  -75.6019 H         1 UNK         0.0847 
     91 H91       -72.1082   30.5492  -76.5315 H         1 UNK         0.3141 
     92 H92       -72.1924   28.8855  -77.8265 H         1 UNK         0.0743 
     93 H93       -69.4492   27.7564  -78.5941 H         1 UNK         0.0784 
     94 H94       -70.8978   27.7620  -79.6014 H         1 UNK         0.0784 
     95 H95       -70.1143   29.2754  -79.1781 H         1 UNK         0.0784 
     96 H96       -71.4138   26.2952  -77.7169 H         1 UNK         0.3213 
     97 H97       -71.8338   24.6530  -76.1752 H         1 UNK         0.0855 
     98 H98       -73.6023   25.4540  -73.8009 H         1 UNK         0.0814 
     99 H99       -71.8823   25.1023  -73.7223 H         1 UNK         0.0814 
    100 H100      -73.0162   23.8319  -74.1579 H         1 UNK         0.0814 
    101 H101      -74.7363   25.0835  -75.9309 H         1 UNK         0.3105 
    102 H102      -75.3757   25.2589  -79.3578 H         1 UNK         0.0547 
    103 H103      -75.0238   22.8225  -79.4357 H         1 UNK         0.0837 
    104 H104      -75.7046   22.6249  -77.8294 H         1 UNK         0.0837 
    105 H105      -76.7279   23.1522  -79.1662 H         1 UNK         0.0837 
    106 H106      -77.0461   24.6447  -77.0858 H         1 UNK         0.3020 
    107 H107      -76.9676   27.6492  -75.5359 H         1 UNK         0.1245 
    108 H108      -79.4912   28.0830  -76.0370 H         1 UNK         0.0781 
    109 H109      -79.1561   27.5587  -77.6601 H         1 UNK         0.0781 
    110 H110      -79.7005   30.7401  -75.6993 H         1 UNK         0.0836 
    111 H111      -78.2522   31.7036  -75.8560 H         1 UNK         0.0836 
    112 H112      -79.0675   25.6837  -75.6646 H         1 UNK         0.3022 
    113 H113      -77.3389   23.2339  -73.8407 H         1 UNK         0.0747 
    114 H114      -79.0107   23.4910  -72.0027 H         1 UNK         0.0793 
    115 H115      -77.7192   24.6758  -71.8687 H         1 UNK         0.0793 
    116 H116      -79.2887   25.1624  -72.4836 H         1 UNK         0.0793 
    117 H117      -80.1413   23.5943  -74.3057 H         1 UNK         0.3047 
    118 H118      -80.1717   22.7987  -77.7399 H         1 UNK         0.0822 
    119 H119      -81.3708   20.6868  -77.2336 H         1 UNK         0.0807 
    120 H120      -80.7429   20.6917  -75.5843 H         1 UNK         0.0807 
    121 H121      -79.6519   20.4809  -76.9468 H         1 UNK         0.0807 
    122 H122      -82.2978   22.6163  -75.9016 H         1 UNK         0.2946 
    123 H123      -83.5363   25.7098  -76.4690 H         1 UNK         0.1144 
    124 H124      -85.1481   24.3117  -75.2270 H         1 UNK         0.0793 
    125 H125      -83.8886   23.1851  -74.7491 H         1 UNK         0.0793 
    126 H126      -84.3524   23.3382  -76.4452 H         1 UNK         0.0793 
    127 H127      -83.3686   26.7076  -74.4886 H         1 UNK         0.2896 
@<TRIPOS>BOND
     1    1    2 1    
     2    1   67 1    
     3    1   68 1    
     4    1   69 1    
     5    2    3 2    
     6    2    4 am   BACKBONE|DICT|INTERRES
     7    4    5 1    
     8    4   70 1    
     9    5    6 1    
    10    5   65 1    
    11    5   71 1    
    12    6    7 1    
    13    6   72 1    
    14    6   73 1    
    15    7    8 1    
    16    8    9 1    
    17    8   74 1    
    18    8   75 1    
    19    9   10 ar   
    20    9   14 ar   
    21   10   11 ar   
    22   10   76 1    
    23   11   12 ar   
    24   11   48 1    
    25   12   13 ar   
    26   12   77 1    
    27   13   14 ar   
    28   13   15 1    
    29   14   78 1    
    30   15   16 1    
    31   15   79 1    
    32   15   80 1    
    33   16   17 1    
    34   17   18 1    
    35   17   81 1    
    36   17   82 1    
    37   18   19 1    
    38   18   22 1    
    39   18   83 1    
    40   19   20 am   BACKBONE|DICT|INTERRES
    41   19   21 2    
    42   20   84 1    
    43   20   85 1    
    44   22   23 am   BACKBONE|DICT|INTERRES
    45   22   86 1    
    46   23   24 2    
    47   23   25 1    
    48   25   26 1    
    49   25   27 1    
    50   25   87 1    
    51   26   88 1    
    52   26   89 1    
    53   26   90 1    
    54   27   28 am   BACKBONE|DICT|INTERRES
    55   27   91 1    
    56   28   29 2    
    57   28   30 1    
    58   30   31 1    
    59   30   32 1    
    60   30   92 1    
    61   31   93 1    
    62   31   94 1    
    63   31   95 1    
    64   32   33 am   BACKBONE|DICT|INTERRES
    65   32   96 1    
    66   33   34 2    
    67   33   35 1    
    68   35   36 1    
    69   35   37 1    
    70   35   97 1    
    71   36   98 1    
    72   36   99 1    
    73   36  100 1    
    74   37   38 am   BACKBONE|DICT|INTERRES
    75   37  101 1    
    76   38   39 2    
    77   38   40 1    
    78   40   41 1    
    79   40   42 1    
    80   40  102 1    
    81   41  103 1    
    82   41  104 1    
    83   41  105 1    
    84   42   43 am   BACKBONE|DICT|INTERRES
    85   42  106 1    
    86   43   44 2    
    87   43   45 1    
    88   45   46 1    
    89   45   49 1    
    90   45  107 1    
    91   46   47 1    
    92   46  108 1    
    93   46  109 1    
    94   47   48 1    
    95   48  110 1    
    96   48  111 1    
    97   49   50 am   BACKBONE|DICT|INTERRES
    98   49  112 1    
    99   50   51 2    
   100   50   52 1    
   101   52   53 1    
   102   52   54 1    
   103   52  113 1    
   104   53  114 1    
   105   53  115 1    
   106   53  116 1    
   107   54   55 am   BACKBONE|DICT|INTERRES
   108   54  117 1    
   109   55   56 2    
   110   55   57 1    
   111   57   58 1    
   112   57   59 1    
   113   57  118 1    
   114   58  119 1    
   115   58  120 1    
   116   58  121 1    
   117   59   60 am   BACKBONE|DICT|INTERRES
   118   59  122 1    
   119   60   61 2    
   120   60   62 1    
   121   62   63 1    
   122   62   64 1    
   123   62  123 1    
   124   63  124 1    
   125   63  125 1    
   126   63  126 1    
   127   64   65 am   BACKBONE|DICT|INTERRES
   128   64  127 1    
   129   65   66 2    
@<TRIPOS>SUBSTRUCTURE
     1 UNK         1 GROUP             0       ****    0 ROOT    
