@<TRIPOS>MOLECULE
3R135
127   129    1
SMALL
USER_CHARGES


@<TRIPOS>ATOM
      1 CA        -81.2425   24.4104  -72.5314 C.3       0 UNK        -0.1998 
      2 C         -81.2272   25.5694  -73.5157 C.2       0 UNK         0.4909 
      3 O         -81.2173   25.3464  -74.7278 O.2       0 UNK        -0.5240 
      4 N         -81.2399   26.8042  -72.9957 N.am      1 UNK        -0.4739 
      5 CA        -81.3502   28.0634  -73.7471 C.3       1 UNK         0.0864 
      6 C6        -81.4788   29.3324  -72.8446 C.3       11 UNK        -0.0881 
      7 S7        -81.9317   29.0116  -71.0982 S.3       11 UNK        -0.2682 
      8 C8        -80.4784   29.6381  -70.1886 C.3       11 UNK         0.0289 
      9 C9        -79.1587   29.0233  -70.6456 C.ar      11 UNK        -0.0687 
     10 C10       -78.8478   27.6932  -70.3462 C.ar      11 UNK        -0.0823 
     11 C11       -77.6178   27.1470  -70.7314 C.ar      11 UNK        -0.0830 
     12 C12       -76.6983   27.9383  -71.4256 C.ar      11 UNK        -0.1021 
     13 C13       -76.9974   29.2696  -71.7301 C.ar      11 UNK        -0.0753 
     14 C14       -78.2271   29.8048  -71.3362 C.ar      11 UNK        -0.0933 
     15 C15       -75.9999   30.1346  -72.4854 C.3       11 UNK         0.0166 
     16 S16       -74.6051   30.6267  -71.4265 S.3       11 UNK        -0.2615 
     17 C17       -74.1631   32.2616  -72.1185 C.3       11 UNK        -0.0865 
     18 CA        -73.0031   32.2428  -73.1488 C.3       10 UNK         0.0862 
     19 C         -71.6248   31.9076  -72.5029 C.2       10 UNK         0.5551 
     20 N         -70.8952   30.8952  -72.9569 N.am      10 UNK        -0.7319 
     21 O         -71.1997   32.5974  -71.5791 O.2       10 UNK        -0.5018 
     22 N         -73.3441   31.4453  -74.3369 N.am      10 UNK        -0.4509 
     23 C         -72.8543   31.6578  -75.5648 C.2       10 UNK         0.4899 
     24 O         -72.1325   32.6142  -75.8522 O.2       10 UNK        -0.4839 
     25 CA        -73.2377   30.6323  -76.6552 C.3       9 UNK         0.0222 
     26 CB        -72.2407   30.6315  -77.8332 C.3       9 UNK        -0.1966 
     27 N         -73.4337   29.2574  -76.1696 N.am      9 UNK        -0.4218 
     28 C         -72.5688   28.5100  -75.4653 C.2       9 UNK         0.5020 
     29 O         -71.4954   28.9239  -75.0260 O.2       9 UNK        -0.5274 
     30 CA        -72.9777   27.0535  -75.1861 C.3       8 UNK         0.0270 
     31 CB        -73.6976   26.9547  -73.8324 C.3       8 UNK        -0.1976 
     32 N         -73.8098   26.4409  -76.2291 N.am      8 UNK        -0.4313 
     33 C         -73.4293   26.2257  -77.4962 C.2       8 UNK         0.5041 
     34 O         -72.3518   26.5977  -77.9655 O.2       8 UNK        -0.5577 
     35 CA        -74.4203   25.4232  -78.3622 C.3       7 UNK         0.0284 
     36 CB        -73.9402   25.2341  -79.8166 C.3       7 UNK        -0.1958 
     37 N         -74.7552   24.1283  -77.7534 N.am      7 UNK        -0.4454 
     38 C         -73.9031   23.1522  -77.3998 C.2       7 UNK         0.5089 
     39 O         -72.6862   23.1876  -77.5909 O.2       7 UNK        -0.5125 
     40 CA        -74.5342   21.9222  -76.7225 C.3       6 UNK         0.0408 
     41 CB        -73.4920   20.9401  -76.1455 C.3       6 UNK        -0.1791 
     42 N         -75.5357   22.2827  -75.7135 N.am      6 UNK        -0.4762 
     43 C         -75.3569   22.9420  -74.5555 C.2       6 UNK         0.5007 
     44 O         -74.2600   23.3437  -74.1679 O.2       6 UNK        -0.5032 
     45 CA        -76.6158   23.1806  -73.6830 C.3       5 UNK         0.0783 
     46 C46       -76.4984   24.4391  -72.7813 C.3       11 UNK        -0.0857 
     47 S47       -77.8831   24.5329  -71.5990 S.3       11 UNK        -0.2512 
     48 C48       -77.2700   25.7135  -70.3609 C.3       11 UNK         0.0225 
     49 N         -77.8209   23.2193  -74.5194 N.am      5 UNK        -0.4615 
     50 C         -78.5725   22.1640  -74.8602 C.2       4 UNK         0.5053 
     51 O         -78.4231   21.0414  -74.3794 O.2       4 UNK        -0.5105 
     52 CA        -79.6104   22.3686  -75.9802 C.3       4 UNK         0.0263 
     53 CB        -81.0379   22.0347  -75.5171 C.3       4 UNK        -0.1981 
     54 N         -79.5704   23.7127  -76.5701 N.am      4 UNK        -0.4224 
     55 C         -78.6530   24.1050  -77.4677 C.2       3 UNK         0.4895 
     56 O         -77.7321   23.3893  -77.8649 O.2       3 UNK        -0.5091 
     57 CA        -78.7404   25.5544  -77.9645 C.3       3 UNK         0.0250 
     58 CB        -80.0294   25.7898  -78.7690 C.3       3 UNK        -0.1996 
     59 N         -78.6469   26.5423  -76.8895 N.am      3 UNK        -0.4254 
     60 C         -77.6259   26.6931  -76.0369 C.2       2 UNK         0.5004 
     61 O         -76.6363   25.9614  -76.0045 O.2       2 UNK        -0.5226 
     62 CA        -77.7137   27.8587  -75.0424 C.3       2 UNK         0.0269 
     63 CB        -77.3756   29.2009  -75.7216 C.3       2 UNK        -0.1926 
     64 N         -78.9834   27.9134  -74.3113 N.am      2 UNK        -0.4687 
     65 C         -80.2057   28.2296  -74.7635 C.2       1 UNK         0.5165 
     66 O         -80.4520   28.5837  -75.9174 O.2       1 UNK        -0.5079 
     67 H67       -82.1975   23.8887  -72.5822 H         1 UNK         0.0900 
     68 H68       -81.0915   24.7467  -71.5057 H         1 UNK         0.0900 
     69 H69       -80.4528   23.7000  -72.7710 H         1 UNK         0.0900 
     70 H70       -81.2547   26.9218  -71.9918 H         1 UNK         0.2959 
     71 H71       -82.2706   27.9783  -74.3292 H         1 UNK         0.1079 
     72 H72       -80.5701   29.9361  -72.8563 H         1 UNK         0.0837 
     73 H73       -82.2421   29.9893  -73.2648 H         1 UNK         0.0837 
     74 H74       -80.4491   30.7246  -70.2849 H         1 UNK         0.0685 
     75 H75       -80.6170   29.4344  -69.1259 H         1 UNK         0.0685 
     76 H76       -79.5586   27.0878  -69.8003 H         1 UNK         0.1434 
     77 H77       -75.7420   27.5240  -71.7122 H         1 UNK         0.1329 
     78 H78       -78.4571   30.8372  -71.5620 H         1 UNK         0.1335 
     79 H79       -75.6147   29.5899  -73.3465 H         1 UNK         0.0680 
     80 H80       -76.5032   31.0172  -72.8817 H         1 UNK         0.0680 
     81 H81       -73.9078   32.9172  -71.2837 H         1 UNK         0.1032 
     82 H82       -75.0431   32.7216  -72.5694 H         1 UNK         0.1032 
     83 H83       -72.8970   33.2761  -73.4851 H         1 UNK         0.0461 
     84 H84       -71.2168   30.3120  -73.7239 H         1 UNK         0.3453 
     85 H85       -70.0045   30.7035  -72.5277 H         1 UNK         0.3453 
     86 H86       -73.8920   30.6166  -74.1698 H         1 UNK         0.2984 
     87 H87       -74.2044   30.9570  -77.0426 H         1 UNK         0.0554 
     88 H88       -72.5385   29.9222  -78.6056 H         1 UNK         0.0847 
     89 H89       -71.2347   30.3650  -77.5065 H         1 UNK         0.0847 
     90 H90       -72.1821   31.6138  -78.3037 H         1 UNK         0.0847 
     91 H91       -74.2795   28.8016  -76.4782 H         1 UNK         0.3141 
     92 H92       -72.0568   26.4699  -75.1233 H         1 UNK         0.0743 
     93 H93       -74.6721   27.4374  -73.8623 H         1 UNK         0.0784 
     94 H94       -73.8455   25.9162  -73.5387 H         1 UNK         0.0784 
     95 H95       -73.1184   27.4324  -73.0405 H         1 UNK         0.0784 
     96 H96       -74.7300   26.1024  -75.9556 H         1 UNK         0.3213 
     97 H97       -75.3439   26.0024  -78.3963 H         1 UNK         0.0855 
     98 H98       -73.7701   26.1977  -80.2984 H         1 UNK         0.0814 
     99 H99       -74.6807   24.7001  -80.4118 H         1 UNK         0.0814 
    100 H100      -73.0041   24.6770  -79.8669 H         1 UNK         0.0814 
    101 H101      -75.7390   23.9841  -77.5475 H         1 UNK         0.3105 
    102 H102      -75.0772   21.3944  -77.5079 H         1 UNK         0.0547 
    103 H103      -72.8314   20.5684  -76.9297 H         1 UNK         0.0837 
    104 H104      -72.8625   21.4120  -75.3906 H         1 UNK         0.0837 
    105 H105      -73.9712   20.0738  -75.6901 H         1 UNK         0.0837 
    106 H106      -76.4846   22.0286  -75.9498 H         1 UNK         0.3020 
    107 H107      -76.6731   22.3137  -73.0206 H         1 UNK         0.1245 
    108 H108      -76.4736   25.3512  -73.3775 H         1 UNK         0.0781 
    109 H109      -75.5695   24.4157  -72.2089 H         1 UNK         0.0781 
    110 H110      -76.1936   25.5981  -70.2260 H         1 UNK         0.0836 
    111 H111      -77.7186   25.4685  -69.3970 H         1 UNK         0.0836 
    112 H112      -77.9917   24.0950  -74.9924 H         1 UNK         0.3022 
    113 H113      -79.3565   21.6504  -76.7631 H         1 UNK         0.0747 
    114 H114      -81.7447   22.0967  -76.3446 H         1 UNK         0.0793 
    115 H115      -81.0937   21.0196  -75.1218 H         1 UNK         0.0793 
    116 H116      -81.3849   22.7050  -74.7348 H         1 UNK         0.0793 
    117 H117      -80.2463   24.3843  -76.2141 H         1 UNK         0.3047 
    118 H118      -77.8931   25.7204  -78.6327 H         1 UNK         0.0822 
    119 H119      -80.0301   26.7765  -79.2327 H         1 UNK         0.0807 
    120 H120      -80.9195   25.7164  -78.1426 H         1 UNK         0.0807 
    121 H121      -80.1308   25.0567  -79.5706 H         1 UNK         0.0807 
    122 H122      -79.4178   27.1977  -76.7974 H         1 UNK         0.2946 
    123 H123      -76.9553   27.6723  -74.2839 H         1 UNK         0.1144 
    124 H124      -77.4614   30.0340  -75.0251 H         1 UNK         0.0793 
    125 H125      -78.0322   29.4113  -76.5663 H         1 UNK         0.0793 
    126 H126      -76.3560   29.1976  -76.1046 H         1 UNK         0.0793 
    127 H127      -78.9303   27.6119  -73.3467 H         1 UNK         0.2896 
@<TRIPOS>BOND
     1    1    2 1    
     2    1   67 1    
     3    1   68 1    
     4    1   69 1    
     5    2    3 2    
     6    2    4 am   BACKBONE|DICT|INTERRES
     7    4    5 1    
     8    4   70 1    
     9    5    6 1    
    10    5   65 1    
    11    5   71 1    
    12    6    7 1    
    13    6   72 1    
    14    6   73 1    
    15    7    8 1    
    16    8    9 1    
    17    8   74 1    
    18    8   75 1    
    19    9   10 ar   
    20    9   14 ar   
    21   10   11 ar   
    22   10   76 1    
    23   11   12 ar   
    24   11   48 1    
    25   12   13 ar   
    26   12   77 1    
    27   13   14 ar   
    28   13   15 1    
    29   14   78 1    
    30   15   16 1    
    31   15   79 1    
    32   15   80 1    
    33   16   17 1    
    34   17   18 1    
    35   17   81 1    
    36   17   82 1    
    37   18   19 1    
    38   18   22 1    
    39   18   83 1    
    40   19   20 am   BACKBONE|DICT|INTERRES
    41   19   21 2    
    42   20   84 1    
    43   20   85 1    
    44   22   23 am   BACKBONE|DICT|INTERRES
    45   22   86 1    
    46   23   24 2    
    47   23   25 1    
    48   25   26 1    
    49   25   27 1    
    50   25   87 1    
    51   26   88 1    
    52   26   89 1    
    53   26   90 1    
    54   27   28 am   BACKBONE|DICT|INTERRES
    55   27   91 1    
    56   28   29 2    
    57   28   30 1    
    58   30   31 1    
    59   30   32 1    
    60   30   92 1    
    61   31   93 1    
    62   31   94 1    
    63   31   95 1    
    64   32   33 am   BACKBONE|DICT|INTERRES
    65   32   96 1    
    66   33   34 2    
    67   33   35 1    
    68   35   36 1    
    69   35   37 1    
    70   35   97 1    
    71   36   98 1    
    72   36   99 1    
    73   36  100 1    
    74   37   38 am   BACKBONE|DICT|INTERRES
    75   37  101 1    
    76   38   39 2    
    77   38   40 1    
    78   40   41 1    
    79   40   42 1    
    80   40  102 1    
    81   41  103 1    
    82   41  104 1    
    83   41  105 1    
    84   42   43 am   BACKBONE|DICT|INTERRES
    85   42  106 1    
    86   43   44 2    
    87   43   45 1    
    88   45   46 1    
    89   45   49 1    
    90   45  107 1    
    91   46   47 1    
    92   46  108 1    
    93   46  109 1    
    94   47   48 1    
    95   48  110 1    
    96   48  111 1    
    97   49   50 am   BACKBONE|DICT|INTERRES
    98   49  112 1    
    99   50   51 2    
   100   50   52 1    
   101   52   53 1    
   102   52   54 1    
   103   52  113 1    
   104   53  114 1    
   105   53  115 1    
   106   53  116 1    
   107   54   55 am   BACKBONE|DICT|INTERRES
   108   54  117 1    
   109   55   56 2    
   110   55   57 1    
   111   57   58 1    
   112   57   59 1    
   113   57  118 1    
   114   58  119 1    
   115   58  120 1    
   116   58  121 1    
   117   59   60 am   BACKBONE|DICT|INTERRES
   118   59  122 1    
   119   60   61 2    
   120   60   62 1    
   121   62   63 1    
   122   62   64 1    
   123   62  123 1    
   124   63  124 1    
   125   63  125 1    
   126   63  126 1    
   127   64   65 am   BACKBONE|DICT|INTERRES
   128   64  127 1    
   129   65   66 2    
@<TRIPOS>SUBSTRUCTURE
     1 UNK         1 GROUP             0       ****    0 ROOT    
