@<TRIPOS>MOLECULE
3R135
127   129    1
SMALL
USER_CHARGES


@<TRIPOS>ATOM
      1 CA        -81.7842   29.6010  -76.9190 C.3       0 UNK        -0.1998 
      2 C         -82.1983   28.9215  -75.6221 C.2       0 UNK         0.4909 
      3 O         -83.3151   28.4111  -75.5330 O.2       0 UNK        -0.5240 
      4 N         -81.3007   28.9139  -74.6265 N.am      1 UNK        -0.4739 
      5 CA        -81.4597   28.3036  -73.2977 C.3       1 UNK         0.0864 
      6 C6        -82.4861   29.0341  -72.3894 C.3       11 UNK        -0.0881 
      7 S7        -81.9453   30.7219  -71.9555 S.3       11 UNK        -0.2682 
      8 C8        -81.2284   30.4629  -70.2982 C.3       11 UNK         0.0289 
      9 C9        -79.8505   29.8178  -70.3695 C.ar      11 UNK        -0.0687 
     10 C10       -79.7102   28.4270  -70.3166 C.ar      11 UNK        -0.0823 
     11 C11       -78.4496   27.8293  -70.4208 C.ar      11 UNK        -0.0830 
     12 C12       -77.3167   28.6495  -70.4879 C.ar      11 UNK        -0.1021 
     13 C13       -77.4409   30.0397  -70.5610 C.ar      11 UNK        -0.0753 
     14 C14       -78.7122   30.6173  -70.5021 C.ar      11 UNK        -0.0933 
     15 C15       -76.2075   30.9179  -70.7259 C.3       11 UNK         0.0166 
     16 S16       -75.4100   30.6607  -72.3471 S.3       11 UNK        -0.2615 
     17 C17       -74.2199   29.3249  -71.9767 C.3       11 UNK        -0.0865 
     18 CA        -72.8372   29.5955  -72.6193 C.3       10 UNK         0.0862 
     19 C         -71.7521   28.6707  -72.0102 C.2       10 UNK         0.5551 
     20 N         -70.8071   29.2228  -71.2623 N.am      10 UNK        -0.7319 
     21 O         -71.7920   27.4537  -72.1731 O.2       10 UNK        -0.5018 
     22 N         -72.8888   29.4258  -74.0753 N.am      10 UNK        -0.4509 
     23 C         -72.0164   29.9591  -74.9368 C.2       10 UNK         0.4899 
     24 O         -71.1510   30.7795  -74.6247 O.2       10 UNK        -0.4839 
     25 CA        -72.1289   29.4528  -76.3863 C.3       9 UNK         0.0222 
     26 CB        -71.1269   30.1210  -77.3515 C.3       9 UNK        -0.1966 
     27 N         -72.0300   27.9901  -76.4439 N.am      9 UNK        -0.4218 
     28 C         -70.9984   27.2199  -76.0612 C.2       9 UNK         0.5020 
     29 O         -69.9099   27.6574  -75.6854 O.2       9 UNK        -0.5274 
     30 CA        -71.2095   25.6940  -76.0840 C.3       8 UNK         0.0270 
     31 CB        -71.4023   25.1625  -74.6549 C.3       8 UNK        -0.1976 
     32 N         -72.3435   25.2674  -76.9082 N.am      8 UNK        -0.4313 
     33 C         -72.3499   25.2671  -78.2480 C.2       8 UNK         0.5041 
     34 O         -71.3780   25.5780  -78.9380 O.2       8 UNK        -0.5577 
     35 CA        -73.6684   24.8766  -78.9355 C.3       7 UNK         0.0284 
     36 CB        -73.8144   23.3477  -78.9962 C.3       7 UNK        -0.1958 
     37 N         -74.8492   25.4669  -78.2958 N.am      7 UNK        -0.4454 
     38 C         -75.1084   26.7826  -78.2450 C.2       7 UNK         0.5089 
     39 O         -74.3835   27.6440  -78.7423 O.2       7 UNK        -0.5125 
     40 CA        -76.3696   27.2200  -77.4820 C.3       6 UNK         0.0408 
     41 CB        -77.6317   26.9929  -78.3288 C.3       6 UNK        -0.1791 
     42 N         -76.5096   26.5388  -76.1956 N.am      6 UNK        -0.4762 
     43 C         -75.6777   26.6885  -75.1554 C.2       6 UNK         0.5007 
     44 O         -74.7268   27.4713  -75.1452 O.2       6 UNK        -0.5032 
     45 CA        -75.9173   25.7805  -73.9342 C.3       5 UNK         0.0783 
     46 C46       -76.9800   26.3826  -72.9821 C.3       11 UNK        -0.0857 
     47 S47       -76.8853   25.6227  -71.3246 S.3       11 UNK        -0.2512 
     48 C48       -78.3564   26.3021  -70.4699 C.3       11 UNK         0.0225 
     49 N         -76.2460   24.4073  -74.3320 N.am      5 UNK        -0.4615 
     50 C         -75.4187   23.5816  -74.9872 C.2       4 UNK         0.5053 
     51 O         -74.2751   23.8816  -75.3255 O.2       4 UNK        -0.5105 
     52 CA        -75.9774   22.2004  -75.3635 C.3       4 UNK         0.0263 
     53 CB        -75.9515   21.2550  -74.1520 C.3       4 UNK        -0.1981 
     54 N         -77.3359   22.2738  -75.9055 N.am      4 UNK        -0.4224 
     55 C         -77.6576   22.8667  -77.0647 C.2       3 UNK         0.4895 
     56 O         -76.8397   23.3878  -77.8220 O.2       3 UNK        -0.5091 
     57 CA        -79.1554   22.9394  -77.4073 C.3       3 UNK         0.0250 
     58 CB        -79.6429   21.6112  -78.0080 C.3       3 UNK        -0.1996 
     59 N         -79.9959   23.3071  -76.2608 N.am      3 UNK        -0.4254 
     60 C         -79.8702   24.4516  -75.5765 C.2       2 UNK         0.5004 
     61 O         -79.0155   25.3072  -75.8229 O.2       2 UNK        -0.5226 
     62 CA        -80.8205   24.6716  -74.3972 C.3       2 UNK         0.0269 
     63 CB        -80.3508   23.8787  -73.1615 C.3       2 UNK        -0.1926 
     64 N         -80.8176   26.1027  -74.1170 N.am      2 UNK        -0.4687 
     65 C         -81.7002   26.7802  -73.3798 C.2       1 UNK         0.5165 
     66 O         -82.6514   26.2546  -72.7982 O.2       1 UNK        -0.5079 
     67 H67       -81.8133   28.8873  -77.7419 H         1 UNK         0.0900 
     68 H68       -80.7761   30.0113  -76.8623 H         1 UNK         0.0900 
     69 H69       -82.4691   30.4164  -77.1502 H         1 UNK         0.0900 
     70 H70       -80.4105   29.3674  -74.7781 H         1 UNK         0.2959 
     71 H71       -80.4798   28.4008  -72.8331 H         1 UNK         0.1079 
     72 H72       -82.6586   28.4810  -71.4647 H         1 UNK         0.0837 
     73 H73       -83.4583   29.0940  -72.8809 H         1 UNK         0.0837 
     74 H74       -81.1527   31.4299  -69.7984 H         1 UNK         0.0685 
     75 H75       -81.9036   29.8629  -69.6863 H         1 UNK         0.0685 
     76 H76       -80.5913   27.8059  -70.2293 H         1 UNK         0.1434 
     77 H77       -76.3331   28.2068  -70.5287 H         1 UNK         0.1329 
     78 H78       -78.8195   31.6919  -70.5625 H         1 UNK         0.1335 
     79 H79       -75.5062   30.7344  -69.9111 H         1 UNK         0.0680 
     80 H80       -76.4825   31.9710  -70.6500 H         1 UNK         0.0680 
     81 H81       -74.1164   29.2313  -70.8943 H         1 UNK         0.1032 
     82 H82       -74.6260   28.3731  -72.3224 H         1 UNK         0.1032 
     83 H83       -72.5645   30.6310  -72.4032 H         1 UNK         0.0461 
     84 H84       -70.7700   30.2207  -71.1227 H         1 UNK         0.3453 
     85 H85       -70.1045   28.6320  -70.8459 H         1 UNK         0.3453 
     86 H86       -73.5489   28.7340  -74.4225 H         1 UNK         0.2984 
     87 H87       -73.1341   29.7043  -76.7285 H         1 UNK         0.0554 
     88 H88       -71.2525   29.7513  -78.3692 H         1 UNK         0.0847 
     89 H89       -70.0926   29.9438  -77.0555 H         1 UNK         0.0847 
     90 H90       -71.2750   31.2011  -77.3775 H         1 UNK         0.0847 
     91 H91       -72.8849   27.5159  -76.7048 H         1 UNK         0.3141 
     92 H92       -70.3017   25.2458  -76.4934 H         1 UNK         0.0743 
     93 H93       -72.3064   25.5664  -74.1968 H         1 UNK         0.0784 
     94 H94       -71.4763   24.0750  -74.6407 H         1 UNK         0.0784 
     95 H95       -70.5633   25.4403  -74.0154 H         1 UNK         0.0784 
     96 H96       -73.1621   24.9196  -76.4107 H         1 UNK         0.3213 
     97 H97       -73.6273   25.2526  -79.9601 H         1 UNK         0.0855 
     98 H98       -73.9094   22.9111  -78.0015 H         1 UNK         0.0814 
     99 H99       -72.9468   22.8901  -79.4734 H         1 UNK         0.0814 
    100 H100      -74.6920   23.0566  -79.5737 H         1 UNK         0.0814 
    101 H101      -75.5265   24.8177  -77.9028 H         1 UNK         0.3105 
    102 H102      -76.2850   28.2905  -77.2834 H         1 UNK         0.0547 
    103 H103      -77.7955   25.9349  -78.5358 H         1 UNK         0.0837 
    104 H104      -78.5200   27.3735  -77.8243 H         1 UNK         0.0837 
    105 H105      -77.5570   27.5069  -79.2878 H         1 UNK         0.0837 
    106 H106      -77.3072   25.9124  -76.0976 H         1 UNK         0.3020 
    107 H107      -74.9639   25.7425  -73.4009 H         1 UNK         0.1245 
    108 H108      -76.8316   27.4578  -72.8736 H         1 UNK         0.0781 
    109 H109      -77.9852   26.2558  -73.3854 H         1 UNK         0.0781 
    110 H110      -79.2438   25.8958  -70.9577 H         1 UNK         0.0836 
    111 H111      -78.3670   25.9224  -69.4476 H         1 UNK         0.0836 
    112 H112      -77.1773   24.0892  -74.1153 H         1 UNK         0.3022 
    113 H113      -75.3300   21.7809  -76.1367 H         1 UNK         0.0747 
    114 H114      -76.2664   20.2484  -74.4279 H         1 UNK         0.0793 
    115 H115      -74.9434   21.1760  -73.7423 H         1 UNK         0.0793 
    116 H116      -76.6027   21.6029  -73.3491 H         1 UNK         0.0793 
    117 H117      -78.0765   21.8730  -75.3490 H         1 UNK         0.3047 
    118 H118      -79.2763   23.7180  -78.1638 H         1 UNK         0.0822 
    119 H119      -80.6747   21.6865  -78.3520 H         1 UNK         0.0807 
    120 H120      -79.5875   20.7937  -77.2881 H         1 UNK         0.0807 
    121 H121      -79.0368   21.3280  -78.8699 H         1 UNK         0.0807 
    122 H122      -80.7166   22.6509  -75.9951 H         1 UNK         0.2946 
    123 H123      -81.8280   24.3641  -74.6863 H         1 UNK         0.1144 
    124 H124      -81.0096   24.0403  -72.3083 H         1 UNK         0.0793 
    125 H125      -79.3415   24.1594  -72.8596 H         1 UNK         0.0793 
    126 H126      -80.3457   22.8065  -73.3606 H         1 UNK         0.0793 
    127 H127      -80.0944   26.6034  -74.6204 H         1 UNK         0.2896 
@<TRIPOS>BOND
     1    1    2 1    
     2    1   67 1    
     3    1   68 1    
     4    1   69 1    
     5    2    3 2    
     6    2    4 am   BACKBONE|DICT|INTERRES
     7    4    5 1    
     8    4   70 1    
     9    5    6 1    
    10    5   65 1    
    11    5   71 1    
    12    6    7 1    
    13    6   72 1    
    14    6   73 1    
    15    7    8 1    
    16    8    9 1    
    17    8   74 1    
    18    8   75 1    
    19    9   10 ar   
    20    9   14 ar   
    21   10   11 ar   
    22   10   76 1    
    23   11   12 ar   
    24   11   48 1    
    25   12   13 ar   
    26   12   77 1    
    27   13   14 ar   
    28   13   15 1    
    29   14   78 1    
    30   15   16 1    
    31   15   79 1    
    32   15   80 1    
    33   16   17 1    
    34   17   18 1    
    35   17   81 1    
    36   17   82 1    
    37   18   19 1    
    38   18   22 1    
    39   18   83 1    
    40   19   20 am   BACKBONE|DICT|INTERRES
    41   19   21 2    
    42   20   84 1    
    43   20   85 1    
    44   22   23 am   BACKBONE|DICT|INTERRES
    45   22   86 1    
    46   23   24 2    
    47   23   25 1    
    48   25   26 1    
    49   25   27 1    
    50   25   87 1    
    51   26   88 1    
    52   26   89 1    
    53   26   90 1    
    54   27   28 am   BACKBONE|DICT|INTERRES
    55   27   91 1    
    56   28   29 2    
    57   28   30 1    
    58   30   31 1    
    59   30   32 1    
    60   30   92 1    
    61   31   93 1    
    62   31   94 1    
    63   31   95 1    
    64   32   33 am   BACKBONE|DICT|INTERRES
    65   32   96 1    
    66   33   34 2    
    67   33   35 1    
    68   35   36 1    
    69   35   37 1    
    70   35   97 1    
    71   36   98 1    
    72   36   99 1    
    73   36  100 1    
    74   37   38 am   BACKBONE|DICT|INTERRES
    75   37  101 1    
    76   38   39 2    
    77   38   40 1    
    78   40   41 1    
    79   40   42 1    
    80   40  102 1    
    81   41  103 1    
    82   41  104 1    
    83   41  105 1    
    84   42   43 am   BACKBONE|DICT|INTERRES
    85   42  106 1    
    86   43   44 2    
    87   43   45 1    
    88   45   46 1    
    89   45   49 1    
    90   45  107 1    
    91   46   47 1    
    92   46  108 1    
    93   46  109 1    
    94   47   48 1    
    95   48  110 1    
    96   48  111 1    
    97   49   50 am   BACKBONE|DICT|INTERRES
    98   49  112 1    
    99   50   51 2    
   100   50   52 1    
   101   52   53 1    
   102   52   54 1    
   103   52  113 1    
   104   53  114 1    
   105   53  115 1    
   106   53  116 1    
   107   54   55 am   BACKBONE|DICT|INTERRES
   108   54  117 1    
   109   55   56 2    
   110   55   57 1    
   111   57   58 1    
   112   57   59 1    
   113   57  118 1    
   114   58  119 1    
   115   58  120 1    
   116   58  121 1    
   117   59   60 am   BACKBONE|DICT|INTERRES
   118   59  122 1    
   119   60   61 2    
   120   60   62 1    
   121   62   63 1    
   122   62   64 1    
   123   62  123 1    
   124   63  124 1    
   125   63  125 1    
   126   63  126 1    
   127   64   65 am   BACKBONE|DICT|INTERRES
   128   64  127 1    
   129   65   66 2    
@<TRIPOS>SUBSTRUCTURE
     1 UNK         1 GROUP             0       ****    0 ROOT    
