@<TRIPOS>MOLECULE
3R135
127   129    1
SMALL
USER_CHARGES


@<TRIPOS>ATOM
      1 CA        -84.2360   27.9746  -72.3080 C.3       0 UNK        -0.1998 
      2 C         -82.9625   27.9286  -73.1382 C.2       0 UNK         0.4909 
      3 O         -82.0841   27.1143  -72.8560 O.2       0 UNK        -0.5240 
      4 N         -82.8627   28.7991  -74.1530 N.am      1 UNK        -0.4739 
      5 CA        -81.7562   28.9639  -75.1115 C.3       1 UNK         0.0864 
      6 C6        -80.3842   29.3006  -74.4673 C.3       11 UNK        -0.0881 
      7 S7        -80.3988   30.9098  -73.6048 S.3       11 UNK        -0.2682 
      8 C8        -80.4352   30.4262  -71.8483 C.3       11 UNK         0.0289 
      9 C9        -79.1408   29.7618  -71.4019 C.ar      11 UNK        -0.0687 
     10 C10       -79.1031   28.3869  -71.1476 C.ar      11 UNK        -0.0823 
     11 C11       -77.9184   27.7748  -70.7272 C.ar      11 UNK        -0.0830 
     12 C12       -76.7684   28.5501  -70.5555 C.ar      11 UNK        -0.1021 
     13 C13       -76.7876   29.9192  -70.8308 C.ar      11 UNK        -0.0753 
     14 C14       -77.9800   30.5240  -71.2385 C.ar      11 UNK        -0.0933 
     15 C15       -75.5077   30.7304  -70.7270 C.3       11 UNK         0.0166 
     16 S16       -74.7928   30.9712  -72.3815 S.3       11 UNK        -0.2615 
     17 C17       -73.0000   31.0187  -72.0305 C.3       11 UNK        -0.0865 
     18 CA        -72.2367   29.7346  -72.4812 C.3       10 UNK         0.0862 
     19 C         -72.4348   28.5158  -71.5374 C.2       10 UNK         0.5551 
     20 N         -72.2047   28.6848  -70.2419 N.am      10 UNK        -0.7319 
     21 O         -72.7655   27.4102  -71.9594 O.2       10 UNK        -0.5018 
     22 N         -72.4938   29.3902  -73.8861 N.am      10 UNK        -0.4509 
     23 C         -72.0597   30.0851  -74.9425 C.2       10 UNK         0.4899 
     24 O         -71.3223   31.0694  -74.8590 O.2       10 UNK        -0.4839 
     25 CA        -72.5457   29.5974  -76.3195 C.3       9 UNK         0.0222 
     26 CB        -71.9586   30.4012  -77.4995 C.3       9 UNK        -0.1966 
     27 N         -72.3388   28.1595  -76.5043 N.am      9 UNK        -0.4218 
     28 C         -71.1779   27.4885  -76.5298 C.2       9 UNK         0.5020 
     29 O         -70.0691   28.0170  -76.4360 O.2       9 UNK        -0.5274 
     30 CA        -71.2598   25.9572  -76.6726 C.3       8 UNK         0.0270 
     31 CB        -71.0155   25.2897  -75.3089 C.3       8 UNK        -0.1976 
     32 N         -72.5378   25.4853  -77.2163 N.am      8 UNK        -0.4313 
     33 C         -72.9350   25.6310  -78.4884 C.2       8 UNK         0.5041 
     34 O         -72.2312   26.1183  -79.3738 O.2       8 UNK        -0.5577 
     35 CA        -74.3724   25.1904  -78.8217 C.3       7 UNK         0.0284 
     36 CB        -74.4501   23.6689  -79.0243 C.3       7 UNK        -0.1958 
     37 N         -75.3437   25.6084  -77.8053 N.am      7 UNK        -0.4454 
     38 C         -75.6588   26.8848  -77.5362 C.2       7 UNK         0.5089 
     39 O         -75.2001   27.8495  -78.1466 O.2       7 UNK        -0.5125 
     40 CA        -76.6161   27.1316  -76.3604 C.3       6 UNK         0.0408 
     41 CB        -78.0759   26.9928  -76.8067 C.3       6 UNK        -0.1791 
     42 N         -76.3478   26.2265  -75.2423 N.am      6 UNK        -0.4762 
     43 C         -75.2722   26.3273  -74.4475 C.2       6 UNK         0.5007 
     44 O         -74.4407   27.2303  -74.5501 O.2       6 UNK        -0.5032 
     45 CA        -75.0444   25.1997  -73.4185 C.3       5 UNK         0.0783 
     46 C46       -75.6691   25.5118  -72.0389 C.3       11 UNK        -0.0857 
     47 S47       -77.4862   25.3344  -71.9692 S.3       11 UNK        -0.2512 
     48 C48       -77.8846   26.2768  -70.4629 C.3       11 UNK         0.0225 
     49 N         -75.4421   23.8834  -73.9268 N.am      5 UNK        -0.4615 
     50 C         -74.8098   23.2430  -74.9164 C.2       4 UNK         0.5053 
     51 O         -73.8201   23.6911  -75.4906 O.2       4 UNK        -0.5105 
     52 CA        -75.3825   21.8913  -75.3662 C.3       4 UNK         0.0263 
     53 CB        -74.7912   20.7529  -74.5200 C.3       4 UNK        -0.1981 
     54 N         -76.8454   21.8088  -75.3424 N.am      4 UNK        -0.4224 
     55 C         -77.6871   22.6008  -76.0220 C.2       3 UNK         0.4895 
     56 O         -77.3218   23.5706  -76.6924 O.2       3 UNK        -0.5091 
     57 CA        -79.1738   22.1898  -75.9916 C.3       3 UNK         0.0250 
     58 CB        -79.6136   21.5610  -74.6477 C.3       3 UNK        -0.1996 
     59 N         -80.0856   23.2688  -76.3914 N.am      3 UNK        -0.4254 
     60 C         -80.3533   24.3981  -75.7209 C.2       2 UNK         0.5004 
     61 O         -79.8385   24.7057  -74.6439 O.2       2 UNK        -0.5226 
     62 CA        -81.3930   25.3258  -76.3692 C.3       2 UNK         0.0269 
     63 CB        -82.7789   24.6567  -76.4439 C.3       2 UNK        -0.1926 
     64 N         -81.5139   26.5627  -75.6005 N.am      2 UNK        -0.4687 
     65 C         -81.6454   27.7911  -76.1084 C.2       1 UNK         0.5165 
     66 O         -81.6946   28.0229  -77.3174 O.2       1 UNK        -0.5079 
     67 H67       -84.7483   27.0140  -72.3550 H         1 UNK         0.0900 
     68 H68       -83.9953   28.1819  -71.2657 H         1 UNK         0.0900 
     69 H69       -84.9244   28.7442  -72.6566 H         1 UNK         0.0900 
     70 H70       -83.6423   29.4203  -74.3200 H         1 UNK         0.2959 
     71 H71       -82.0381   29.8272  -75.7175 H         1 UNK         0.1079 
     72 H72       -79.6134   29.3694  -75.2372 H         1 UNK         0.0837 
     73 H73       -80.0565   28.5070  -73.7956 H         1 UNK         0.0837 
     74 H74       -81.2900   29.7755  -71.6648 H         1 UNK         0.0685 
     75 H75       -80.6021   31.3196  -71.2450 H         1 UNK         0.0685 
     76 H76       -79.9944   27.7893  -71.2854 H         1 UNK         0.1434 
     77 H77       -75.8480   28.0868  -70.2286 H         1 UNK         0.1329 
     78 H78       -77.9986   31.5836  -71.4547 H         1 UNK         0.1335 
     79 H79       -75.7079   31.7007  -70.2702 H         1 UNK         0.0680 
     80 H80       -74.7941   30.2204  -70.0781 H         1 UNK         0.0680 
     81 H81       -72.8264   31.2416  -70.9771 H         1 UNK         0.1032 
     82 H82       -72.5931   31.8791  -72.5632 H         1 UNK         0.1032 
     83 H83       -71.1687   29.9500  -72.4140 H         1 UNK         0.0461 
     84 H84       -71.8935   29.5685  -69.8720 H         1 UNK         0.3453 
     85 H85       -72.3147   27.8964  -69.6241 H         1 UNK         0.3453 
     86 H86       -73.0897   28.5762  -74.0252 H         1 UNK         0.2984 
     87 H87       -73.6266   29.7466  -76.3296 H         1 UNK         0.0554 
     88 H88       -72.2180   31.4574  -77.4178 H         1 UNK         0.0847 
     89 H89       -72.3486   30.0446  -78.4529 H         1 UNK         0.0847 
     90 H90       -70.8708   30.3369  -77.5360 H         1 UNK         0.0847 
     91 H91       -73.1870   27.6095  -76.5385 H         1 UNK         0.3141 
     92 H92       -70.4654   25.6471  -77.3546 H         1 UNK         0.0743 
     93 H93       -70.0498   25.5843  -74.8959 H         1 UNK         0.0784 
     94 H94       -71.7797   25.5700  -74.5824 H         1 UNK         0.0784 
     95 H95       -71.0142   24.2027  -75.3924 H         1 UNK         0.0784 
     96 H96       -73.1442   24.9792  -76.5711 H         1 UNK         0.3213 
     97 H97       -74.6549   25.6701  -79.7615 H         1 UNK         0.0855 
     98 H98       -74.1405   23.1244  -78.1329 H         1 UNK         0.0814 
     99 H99       -73.7973   23.3531  -79.8391 H         1 UNK         0.0814 
    100 H100      -75.4621   23.3517  -79.2769 H         1 UNK         0.0814 
    101 H101      -75.8132   24.8775  -77.2797 H         1 UNK         0.3105 
    102 H102      -76.4688   28.1561  -76.0109 H         1 UNK         0.0547 
    103 H103      -78.2759   26.0161  -77.2471 H         1 UNK         0.0837 
    104 H104      -78.3305   27.7458  -77.5535 H         1 UNK         0.0837 
    105 H105      -78.7503   27.1260  -75.9627 H         1 UNK         0.0837 
    106 H106      -76.9744   25.4408  -75.1218 H         1 UNK         0.3020 
    107 H107      -73.9627   25.1654  -73.2655 H         1 UNK         0.1245 
    108 H108      -75.3795   26.5148  -71.7300 H         1 UNK         0.0781 
    109 H109      -75.2435   24.8419  -71.2904 H         1 UNK         0.0781 
    110 H110      -77.1659   26.0402  -69.6767 H         1 UNK         0.0836 
    111 H111      -78.8567   25.9474  -70.0927 H         1 UNK         0.0836 
    112 H112      -76.2669   23.4719  -73.5144 H         1 UNK         0.3022 
    113 H113      -75.0712   21.7371  -76.4009 H         1 UNK         0.0747 
    114 H114      -75.0947   19.7765  -74.8983 H         1 UNK         0.0793 
    115 H115      -73.7005   20.7792  -74.5385 H         1 UNK         0.0793 
    116 H116      -75.1009   20.8213  -73.4763 H         1 UNK         0.0793 
    117 H117      -77.2394   21.0390  -74.8215 H         1 UNK         0.3047 
    118 H118      -79.2804   21.4221  -76.7594 H         1 UNK         0.0822 
    119 H119      -80.6863   21.3671  -74.6365 H         1 UNK         0.0807 
    120 H120      -79.3872   22.2103  -73.8007 H         1 UNK         0.0807 
    121 H121      -79.1223   20.6040  -74.4702 H         1 UNK         0.0807 
    122 H122      -80.5350   23.1339  -77.2862 H         1 UNK         0.2946 
    123 H123      -81.0427   25.5502  -77.3795 H         1 UNK         0.1144 
    124 H124      -83.5141   25.3214  -76.8980 H         1 UNK         0.0793 
    125 H125      -83.1445   24.3833  -75.4532 H         1 UNK         0.0793 
    126 H126      -82.7550   23.7484  -77.0467 H         1 UNK         0.0793 
    127 H127      -81.4499   26.4642  -74.5891 H         1 UNK         0.2896 
@<TRIPOS>BOND
     1    1    2 1    
     2    1   67 1    
     3    1   68 1    
     4    1   69 1    
     5    2    3 2    
     6    2    4 am   BACKBONE|DICT|INTERRES
     7    4    5 1    
     8    4   70 1    
     9    5    6 1    
    10    5   65 1    
    11    5   71 1    
    12    6    7 1    
    13    6   72 1    
    14    6   73 1    
    15    7    8 1    
    16    8    9 1    
    17    8   74 1    
    18    8   75 1    
    19    9   10 ar   
    20    9   14 ar   
    21   10   11 ar   
    22   10   76 1    
    23   11   12 ar   
    24   11   48 1    
    25   12   13 ar   
    26   12   77 1    
    27   13   14 ar   
    28   13   15 1    
    29   14   78 1    
    30   15   16 1    
    31   15   79 1    
    32   15   80 1    
    33   16   17 1    
    34   17   18 1    
    35   17   81 1    
    36   17   82 1    
    37   18   19 1    
    38   18   22 1    
    39   18   83 1    
    40   19   20 am   BACKBONE|DICT|INTERRES
    41   19   21 2    
    42   20   84 1    
    43   20   85 1    
    44   22   23 am   BACKBONE|DICT|INTERRES
    45   22   86 1    
    46   23   24 2    
    47   23   25 1    
    48   25   26 1    
    49   25   27 1    
    50   25   87 1    
    51   26   88 1    
    52   26   89 1    
    53   26   90 1    
    54   27   28 am   BACKBONE|DICT|INTERRES
    55   27   91 1    
    56   28   29 2    
    57   28   30 1    
    58   30   31 1    
    59   30   32 1    
    60   30   92 1    
    61   31   93 1    
    62   31   94 1    
    63   31   95 1    
    64   32   33 am   BACKBONE|DICT|INTERRES
    65   32   96 1    
    66   33   34 2    
    67   33   35 1    
    68   35   36 1    
    69   35   37 1    
    70   35   97 1    
    71   36   98 1    
    72   36   99 1    
    73   36  100 1    
    74   37   38 am   BACKBONE|DICT|INTERRES
    75   37  101 1    
    76   38   39 2    
    77   38   40 1    
    78   40   41 1    
    79   40   42 1    
    80   40  102 1    
    81   41  103 1    
    82   41  104 1    
    83   41  105 1    
    84   42   43 am   BACKBONE|DICT|INTERRES
    85   42  106 1    
    86   43   44 2    
    87   43   45 1    
    88   45   46 1    
    89   45   49 1    
    90   45  107 1    
    91   46   47 1    
    92   46  108 1    
    93   46  109 1    
    94   47   48 1    
    95   48  110 1    
    96   48  111 1    
    97   49   50 am   BACKBONE|DICT|INTERRES
    98   49  112 1    
    99   50   51 2    
   100   50   52 1    
   101   52   53 1    
   102   52   54 1    
   103   52  113 1    
   104   53  114 1    
   105   53  115 1    
   106   53  116 1    
   107   54   55 am   BACKBONE|DICT|INTERRES
   108   54  117 1    
   109   55   56 2    
   110   55   57 1    
   111   57   58 1    
   112   57   59 1    
   113   57  118 1    
   114   58  119 1    
   115   58  120 1    
   116   58  121 1    
   117   59   60 am   BACKBONE|DICT|INTERRES
   118   59  122 1    
   119   60   61 2    
   120   60   62 1    
   121   62   63 1    
   122   62   64 1    
   123   62  123 1    
   124   63  124 1    
   125   63  125 1    
   126   63  126 1    
   127   64   65 am   BACKBONE|DICT|INTERRES
   128   64  127 1    
   129   65   66 2    
@<TRIPOS>SUBSTRUCTURE
     1 UNK         1 GROUP             0       ****    0 ROOT    
