@<TRIPOS>MOLECULE
3R135
127   129    1
SMALL
USER_CHARGES


@<TRIPOS>ATOM
      1 CA        -83.4830   27.4964  -70.0688 C.3       0 UNK        -0.1998 
      2 C         -83.2261   28.0149  -71.4757 C.2       0 UNK         0.4909 
      3 O         -84.1721   28.2087  -72.2396 O.2       0 UNK        -0.5240 
      4 N         -81.9520   28.2426  -71.8209 N.am      1 UNK        -0.4739 
      5 CA        -81.5132   28.7266  -73.1374 C.3       1 UNK         0.0864 
      6 C6        -80.0641   29.2724  -73.1005 C.3       11 UNK        -0.0881 
      7 S7        -79.8915   30.7576  -72.0456 S.3       11 UNK        -0.2682 
      8 C8        -79.3973   30.0950  -70.4182 C.3       11 UNK         0.0289 
      9 C9        -78.0627   29.3673  -70.4664 C.ar      11 UNK        -0.0687 
     10 C10       -78.0275   27.9727  -70.5311 C.ar      11 UNK        -0.0823 
     11 C11       -76.8104   27.2957  -70.6372 C.ar      11 UNK        -0.0830 
     12 C12       -75.6157   28.0221  -70.6175 C.ar      11 UNK        -0.1021 
     13 C13       -75.6363   29.4171  -70.5236 C.ar      11 UNK        -0.0753 
     14 C14       -76.8635   30.0849  -70.4532 C.ar      11 UNK        -0.0933 
     15 C15       -74.3328   30.2035  -70.4950 C.3       11 UNK         0.0166 
     16 S16       -73.4270   30.1181  -72.0732 S.3       11 UNK        -0.2615 
     17 C17       -74.6009   30.8943  -73.2390 C.3       11 UNK        -0.0865 
     18 CA        -75.0365   29.9186  -74.3722 C.3       10 UNK         0.0862 
     19 C         -76.2247   30.4618  -75.2231 C.2       10 UNK         0.5551 
     20 N         -76.3374   30.1019  -76.4964 N.am      10 UNK        -0.7319 
     21 O         -77.0714   31.1977  -74.7241 O.2       10 UNK        -0.5018 
     22 N         -73.9027   29.4108  -75.1694 N.am      10 UNK        -0.4509 
     23 C         -73.0584   30.1481  -75.9081 C.2       10 UNK         0.4899 
     24 O         -73.1422   31.3717  -76.0242 O.2       10 UNK        -0.4839 
     25 CA        -71.9505   29.3939  -76.6741 C.3       9 UNK         0.0222 
     26 CB        -70.7162   30.2728  -76.9702 C.3       9 UNK        -0.1966 
     27 N         -71.5647   28.1235  -76.0488 N.am      9 UNK        -0.4218 
     28 C         -70.9853   27.9340  -74.8512 C.2       9 UNK         0.5020 
     29 O         -70.5743   28.8488  -74.1369 O.2       9 UNK        -0.5274 
     30 CA        -70.8582   26.4828  -74.3446 C.3       8 UNK         0.0270 
     31 CB        -71.5297   26.3312  -72.9665 C.3       8 UNK        -0.1976 
     32 N         -71.4710   25.5235  -75.2673 N.am      8 UNK        -0.4313 
     33 C         -70.8122   24.7713  -76.1600 C.2       8 UNK         0.5041 
     34 O         -69.5847   24.7308  -76.2476 O.2       8 UNK        -0.5577 
     35 CA        -71.6620   23.9401  -77.1437 C.3       7 UNK         0.0284 
     36 CB        -71.8192   22.4995  -76.6317 C.3       7 UNK        -0.1958 
     37 N         -72.9911   24.5066  -77.3980 N.am      7 UNK        -0.4454 
     38 C         -73.2226   25.6935  -77.9799 C.2       7 UNK         0.5089 
     39 O         -72.3348   26.4091  -78.4408 O.2       7 UNK        -0.5125 
     40 CA        -74.6713   26.2171  -77.9675 C.3       6 UNK         0.0408 
     41 CB        -75.3615   25.9152  -79.3049 C.3       6 UNK        -0.1791 
     42 N         -75.4760   25.6863  -76.8605 N.am      6 UNK        -0.4762 
     43 C         -75.1914   25.8528  -75.5574 C.2       6 UNK         0.5007 
     44 O         -74.2436   26.5348  -75.1649 O.2       6 UNK        -0.5032 
     45 CA        -76.0485   25.1049  -74.5169 C.3       5 UNK         0.0783 
     46 C46       -76.8309   26.1001  -73.6316 C.3       11 UNK        -0.0857 
     47 S47       -77.7382   25.2611  -72.2856 S.3       11 UNK        -0.2512 
     48 C48       -76.7934   25.7834  -70.8138 C.3       11 UNK         0.0225 
     49 N         -76.9183   24.0936  -75.1250 N.am      5 UNK        -0.4615 
     50 C         -76.4947   22.9118  -75.5954 C.2       4 UNK         0.5053 
     51 O         -75.3145   22.5610  -75.5766 O.2       4 UNK        -0.5105 
     52 CA        -77.5474   21.9736  -76.2160 C.3       4 UNK         0.0263 
     53 CB        -78.0098   20.9353  -75.1814 C.3       4 UNK        -0.1981 
     54 N         -78.7191   22.6737  -76.7499 N.am      4 UNK        -0.4224 
     55 C         -78.6953   23.5461  -77.7680 C.2       3 UNK         0.4895 
     56 O         -77.6834   23.8082  -78.4168 O.2       3 UNK        -0.5091 
     57 CA        -80.0066   24.2880  -78.0867 C.3       3 UNK         0.0250 
     58 CB        -80.7705   23.5679  -79.2093 C.3       3 UNK        -0.1996 
     59 N         -80.8955   24.4717  -76.9310 N.am      3 UNK        -0.4254 
     60 C         -80.5734   25.1372  -75.8122 C.2       2 UNK         0.5004 
     61 O         -79.4619   25.6270  -75.6057 O.2       2 UNK        -0.5226 
     62 CA        -81.6534   25.1988  -74.7191 C.3       2 UNK         0.0269 
     63 CB        -81.5940   23.9322  -73.8485 C.3       2 UNK        -0.1926 
     64 N         -81.5172   26.3693  -73.8486 N.am      2 UNK        -0.4687 
     65 C         -81.6682   27.6466  -74.2311 C.2       1 UNK         0.5165 
     66 O         -81.9541   27.9871  -75.3805 O.2       1 UNK        -0.5079 
     67 H67       -82.5602   27.3806  -69.5006 H         1 UNK         0.0900 
     68 H68       -83.9790   26.5271  -70.1113 H         1 UNK         0.0900 
     69 H69       -84.1294   28.1866  -69.5274 H         1 UNK         0.0900 
     70 H70       -81.2202   28.0761  -71.1479 H         1 UNK         0.2959 
     71 H71       -82.1723   29.5500  -73.4230 H         1 UNK         0.1079 
     72 H72       -79.7524   29.5704  -74.1039 H         1 UNK         0.0837 
     73 H73       -79.3591   28.4977  -72.8005 H         1 UNK         0.0837 
     74 H74       -79.3282   30.9252  -69.7137 H         1 UNK         0.0685 
     75 H75       -80.1801   29.4427  -70.0310 H         1 UNK         0.0685 
     76 H76       -78.9497   27.4090  -70.5440 H         1 UNK         0.1434 
     77 H77       -74.6669   27.5084  -70.6950 H         1 UNK         0.1329 
     78 H78       -76.8895   31.1645  -70.3967 H         1 UNK         0.1335 
     79 H79       -73.6956   29.8069  -69.7035 H         1 UNK         0.0680 
     80 H80       -74.5136   31.2502  -70.2454 H         1 UNK         0.0680 
     81 H81       -74.1407   31.7918  -73.6534 H         1 UNK         0.1032 
     82 H82       -75.4709   31.2462  -72.6833 H         1 UNK         0.1032 
     83 H83       -75.4500   29.0379  -73.8807 H         1 UNK         0.0461 
     84 H84       -75.6515   29.4980  -76.9173 H         1 UNK         0.3453 
     85 H85       -77.1103   30.4504  -77.0406 H         1 UNK         0.3453 
     86 H86       -73.7868   28.4020  -75.1512 H         1 UNK         0.2984 
     87 H87       -72.3909   29.1248  -77.6349 H         1 UNK         0.0554 
     88 H88       -69.9528   29.7158  -77.5133 H         1 UNK         0.0847 
     89 H89       -70.2646   30.6598  -76.0564 H         1 UNK         0.0847 
     90 H90       -70.9862   31.1321  -77.5852 H         1 UNK         0.0847 
     91 H91       -71.8136   27.3008  -76.5845 H         1 UNK         0.3141 
     92 H92       -69.7933   26.2696  -74.2315 H         1 UNK         0.0743 
     93 H93       -72.5877   26.5953  -72.9998 H         1 UNK         0.0784 
     94 H94       -71.4492   25.3096  -72.5952 H         1 UNK         0.0784 
     95 H95       -71.0588   26.9810  -72.2276 H         1 UNK         0.0784 
     96 H96       -72.4854   25.5255  -75.2808 H         1 UNK         0.3213 
     97 H97       -71.1251   23.9112  -78.0943 H         1 UNK         0.0855 
     98 H98       -72.3731   22.4626  -75.6925 H         1 UNK         0.0814 
     99 H99       -70.8460   22.0390  -76.4554 H         1 UNK         0.0814 
    100 H100      -72.3451   21.8757  -77.3548 H         1 UNK         0.0814 
    101 H101      -73.7823   23.9864  -77.0415 H         1 UNK         0.3105 
    102 H102      -74.6255   27.3012  -77.8461 H         1 UNK         0.0547 
    103 H103      -75.4198   24.8429  -79.4957 H         1 UNK         0.0837 
    104 H104      -76.3752   26.3156  -79.3302 H         1 UNK         0.0837 
    105 H105      -74.8153   26.3638  -80.1358 H         1 UNK         0.0837 
    106 H106      -76.2658   25.1043  -77.1133 H         1 UNK         0.3020 
    107 H107      -75.3394   24.5833  -73.8696 H         1 UNK         0.1245 
    108 H108      -76.1485   26.8347  -73.2032 H         1 UNK         0.0781 
    109 H109      -77.5450   26.6731  -74.2245 H         1 UNK         0.0781 
    110 H110      -77.2248   25.3149  -69.9284 H         1 UNK         0.0836 
    111 H111      -75.7718   25.4091  -70.8966 H         1 UNK         0.0836 
    112 H112      -77.8962   24.3523  -75.2076 H         1 UNK         0.3022 
    113 H113      -77.0675   21.4468  -77.0434 H         1 UNK         0.0747 
    114 H114      -78.6935   20.2103  -75.6234 H         1 UNK         0.0793 
    115 H115      -77.1612   20.3766  -74.7837 H         1 UNK         0.0793 
    116 H116      -78.5153   21.4048  -74.3363 H         1 UNK         0.0793 
    117 H117      -79.5968   22.5201  -76.2763 H         1 UNK         0.3047 
    118 H118      -79.7306   25.2823  -78.4446 H         1 UNK         0.0822 
    119 H119      -81.6469   24.1359  -79.5221 H         1 UNK         0.0807 
    120 H120      -81.1038   22.5762  -78.9007 H         1 UNK         0.0807 
    121 H121      -80.1398   23.4398  -80.0905 H         1 UNK         0.0807 
    122 H122      -81.8235   24.0809  -77.0140 H         1 UNK         0.2946 
    123 H123      -82.6317   25.2556  -75.2018 H         1 UNK         0.1144 
    124 H124      -82.3749   23.9361  -73.0877 H         1 UNK         0.0793 
    125 H125      -80.6321   23.8376  -73.3417 H         1 UNK         0.0793 
    126 H126      -81.7363   23.0325  -74.4486 H         1 UNK         0.0793 
    127 H127      -81.2662   26.1897  -72.8881 H         1 UNK         0.2896 
@<TRIPOS>BOND
     1    1    2 1    
     2    1   67 1    
     3    1   68 1    
     4    1   69 1    
     5    2    3 2    
     6    2    4 am   BACKBONE|DICT|INTERRES
     7    4    5 1    
     8    4   70 1    
     9    5    6 1    
    10    5   65 1    
    11    5   71 1    
    12    6    7 1    
    13    6   72 1    
    14    6   73 1    
    15    7    8 1    
    16    8    9 1    
    17    8   74 1    
    18    8   75 1    
    19    9   10 ar   
    20    9   14 ar   
    21   10   11 ar   
    22   10   76 1    
    23   11   12 ar   
    24   11   48 1    
    25   12   13 ar   
    26   12   77 1    
    27   13   14 ar   
    28   13   15 1    
    29   14   78 1    
    30   15   16 1    
    31   15   79 1    
    32   15   80 1    
    33   16   17 1    
    34   17   18 1    
    35   17   81 1    
    36   17   82 1    
    37   18   19 1    
    38   18   22 1    
    39   18   83 1    
    40   19   20 am   BACKBONE|DICT|INTERRES
    41   19   21 2    
    42   20   84 1    
    43   20   85 1    
    44   22   23 am   BACKBONE|DICT|INTERRES
    45   22   86 1    
    46   23   24 2    
    47   23   25 1    
    48   25   26 1    
    49   25   27 1    
    50   25   87 1    
    51   26   88 1    
    52   26   89 1    
    53   26   90 1    
    54   27   28 am   BACKBONE|DICT|INTERRES
    55   27   91 1    
    56   28   29 2    
    57   28   30 1    
    58   30   31 1    
    59   30   32 1    
    60   30   92 1    
    61   31   93 1    
    62   31   94 1    
    63   31   95 1    
    64   32   33 am   BACKBONE|DICT|INTERRES
    65   32   96 1    
    66   33   34 2    
    67   33   35 1    
    68   35   36 1    
    69   35   37 1    
    70   35   97 1    
    71   36   98 1    
    72   36   99 1    
    73   36  100 1    
    74   37   38 am   BACKBONE|DICT|INTERRES
    75   37  101 1    
    76   38   39 2    
    77   38   40 1    
    78   40   41 1    
    79   40   42 1    
    80   40  102 1    
    81   41  103 1    
    82   41  104 1    
    83   41  105 1    
    84   42   43 am   BACKBONE|DICT|INTERRES
    85   42  106 1    
    86   43   44 2    
    87   43   45 1    
    88   45   46 1    
    89   45   49 1    
    90   45  107 1    
    91   46   47 1    
    92   46  108 1    
    93   46  109 1    
    94   47   48 1    
    95   48  110 1    
    96   48  111 1    
    97   49   50 am   BACKBONE|DICT|INTERRES
    98   49  112 1    
    99   50   51 2    
   100   50   52 1    
   101   52   53 1    
   102   52   54 1    
   103   52  113 1    
   104   53  114 1    
   105   53  115 1    
   106   53  116 1    
   107   54   55 am   BACKBONE|DICT|INTERRES
   108   54  117 1    
   109   55   56 2    
   110   55   57 1    
   111   57   58 1    
   112   57   59 1    
   113   57  118 1    
   114   58  119 1    
   115   58  120 1    
   116   58  121 1    
   117   59   60 am   BACKBONE|DICT|INTERRES
   118   59  122 1    
   119   60   61 2    
   120   60   62 1    
   121   62   63 1    
   122   62   64 1    
   123   62  123 1    
   124   63  124 1    
   125   63  125 1    
   126   63  126 1    
   127   64   65 am   BACKBONE|DICT|INTERRES
   128   64  127 1    
   129   65   66 2    
@<TRIPOS>SUBSTRUCTURE
     1 UNK         1 GROUP             0       ****    0 ROOT    
