@<TRIPOS>MOLECULE
3R135
127   129    1
SMALL
USER_CHARGES


@<TRIPOS>ATOM
      1 CA        -82.2194   25.9146  -71.6270 C.3       0 UNK        -0.1998 
      2 C         -81.8908   26.4318  -73.0190 C.2       0 UNK         0.4909 
      3 O         -80.8155   26.1333  -73.5327 O.2       0 UNK        -0.5240 
      4 N         -82.8254   27.1738  -73.6326 N.am      1 UNK        -0.4739 
      5 CA        -82.7582   27.8592  -74.9390 C.3       1 UNK         0.0864 
      6 C6        -82.1134   29.2770  -74.8700 C.3       11 UNK        -0.0881 
      7 S7        -80.3204   29.3271  -74.5225 S.3       11 UNK        -0.2682 
      8 C8        -80.3034   29.8960  -72.7981 C.3       11 UNK         0.0289 
      9 C9        -78.9635   29.6157  -72.1352 C.ar      11 UNK        -0.0687 
     10 C10       -78.7482   28.3887  -71.5033 C.ar      11 UNK        -0.0823 
     11 C11       -77.5448   28.1282  -70.8443 C.ar      11 UNK        -0.0830 
     12 C12       -76.5465   29.1070  -70.8237 C.ar      11 UNK        -0.1021 
     13 C13       -76.7393   30.3335  -71.4690 C.ar      11 UNK        -0.0753 
     14 C14       -77.9514   30.5814  -72.1246 C.ar      11 UNK        -0.0933 
     15 C15       -75.6574   31.4065  -71.4247 C.3       11 UNK         0.0166 
     16 S16       -74.4096   31.1903  -72.7358 S.3       11 UNK        -0.2615 
     17 C17       -73.4012   29.8209  -72.0691 C.3       11 UNK        -0.0865 
     18 CA        -71.9003   29.9220  -72.4418 C.3       10 UNK         0.0862 
     19 C         -71.1035   28.7808  -71.7514 C.2       10 UNK         0.5551 
     20 N         -70.5415   29.0384  -70.5786 N.am      10 UNK        -0.7319 
     21 O         -71.0335   27.6573  -72.2462 O.2       10 UNK        -0.5018 
     22 N         -71.6910   29.9366  -73.8978 N.am      10 UNK        -0.4509 
     23 C         -70.5285   30.2206  -74.4976 C.2       10 UNK         0.4899 
     24 O         -69.5187   30.5854  -73.8924 O.2       10 UNK        -0.4839 
     25 CA        -70.4846   30.0449  -76.0283 C.3       9 UNK         0.0222 
     26 CB        -69.1866   30.5927  -76.6520 C.3       9 UNK        -0.1966 
     27 N         -70.6299   28.6339  -76.3952 N.am      9 UNK        -0.4218 
     28 C         -71.7963   27.9814  -76.4617 C.2       9 UNK         0.5020 
     29 O         -72.8848   28.5228  -76.2595 O.2       9 UNK        -0.5274 
     30 CA        -71.7176   26.4713  -76.7502 C.3       8 UNK         0.0270 
     31 CB        -71.3407   25.7037  -75.4719 C.3       8 UNK        -0.1976 
     32 N         -72.9858   25.9469  -77.2596 N.am      8 UNK        -0.4313 
     33 C         -73.4745   26.1839  -78.4842 C.2       8 UNK         0.5041 
     34 O         -72.8541   26.7760  -79.3693 O.2       8 UNK        -0.5577 
     35 CA        -74.8995   25.6816  -78.7680 C.3       7 UNK         0.0284 
     36 CB        -74.9034   24.1787  -79.0931 C.3       7 UNK        -0.1958 
     37 N         -75.8045   25.9475  -77.6488 N.am      7 UNK        -0.4454 
     38 C         -76.3115   27.1531  -77.3489 C.2       7 UNK         0.5089 
     39 O         -76.1349   28.1628  -78.0315 O.2       7 UNK        -0.5125 
     40 CA        -77.1816   27.2397  -76.0844 C.3       6 UNK         0.0408 
     41 CB        -78.6434   26.9244  -76.4348 C.3       6 UNK        -0.1791 
     42 N         -76.7056   26.3220  -75.0451 N.am      6 UNK        -0.4762 
     43 C         -75.6723   26.5938  -74.2317 C.2       6 UNK         0.5007 
     44 O         -75.1178   27.6887  -74.1994 O.2       6 UNK        -0.5032 
     45 CA        -75.1172   25.4645  -73.3325 C.3       5 UNK         0.0783 
     46 C46       -75.3641   25.7172  -71.8247 C.3       11 UNK        -0.0857 
     47 S47       -77.0859   25.4262  -71.2926 S.3       11 UNK        -0.2512 
     48 C48       -77.3481   26.8001  -70.1284 C.3       11 UNK         0.0225 
     49 N         -75.5449   24.1249  -73.7425 N.am      5 UNK        -0.4615 
     50 C         -75.1210   23.4899  -74.8415 C.2       4 UNK         0.5053 
     51 O         -74.2746   23.9497  -75.6072 O.2       4 UNK        -0.5105 
     52 CA        -75.8078   22.1519  -75.1770 C.3       4 UNK         0.0263 
     53 CB        -75.0623   20.9839  -74.5132 C.3       4 UNK        -0.1981 
     54 N         -77.2288   22.1101  -74.7994 N.am      4 UNK        -0.4224 
     55 C         -78.1559   22.9636  -75.2583 C.2       3 UNK         0.4895 
     56 O         -77.8975   23.8507  -76.0733 O.2       3 UNK        -0.5091 
     57 CA        -79.5736   22.8359  -74.6690 C.3       3 UNK         0.0250 
     58 CB        -79.5666   23.1004  -73.1532 C.3       3 UNK        -0.1996 
     59 N         -80.5090   23.7737  -75.2994 N.am      3 UNK        -0.4254 
     60 C         -81.0854   23.5796  -76.4952 C.2       2 UNK         0.5004 
     61 O         -80.9447   22.5446  -77.1497 O.2       2 UNK        -0.5226 
     62 CA        -81.9741   24.7054  -77.0598 C.3       2 UNK         0.0269 
     63 CB        -83.2393   24.1559  -77.7463 C.3       2 UNK        -0.1926 
     64 N         -82.3715   25.6722  -76.0326 N.am      2 UNK        -0.4687 
     65 C         -82.2989   27.0052  -76.1511 C.2       1 UNK         0.5165 
     66 O         -81.9322   27.5657  -77.1857 O.2       1 UNK        -0.5079 
     67 H67       -82.2408   24.8252  -71.6286 H         1 UNK         0.0900 
     68 H68       -83.1857   26.2738  -71.2740 H         1 UNK         0.0900 
     69 H69       -81.4585   26.2371  -70.9172 H         1 UNK         0.0900 
     70 H70       -83.6946   27.3262  -73.1396 H         1 UNK         0.2959 
     71 H71       -83.8080   28.0420  -75.1750 H         1 UNK         0.1079 
     72 H72       -82.2783   29.8064  -75.8102 H         1 UNK         0.0837 
     73 H73       -82.6359   29.8740  -74.1213 H         1 UNK         0.0837 
     74 H74       -81.0969   29.3955  -72.2410 H         1 UNK         0.0685 
     75 H75       -80.5297   30.9628  -72.7672 H         1 UNK         0.0685 
     76 H76       -79.5206   27.6330  -71.5220 H         1 UNK         0.1434 
     77 H77       -75.6203   28.9154  -70.3010 H         1 UNK         0.1329 
     78 H78       -78.1126   31.5308  -72.6167 H         1 UNK         0.1335 
     79 H79       -76.1114   32.3916  -71.5428 H         1 UNK         0.0680 
     80 H80       -75.1741   31.4178  -70.4467 H         1 UNK         0.0680 
     81 H81       -73.5034   29.8129  -70.9828 H         1 UNK         0.1032 
     82 H82       -73.8201   28.8769  -72.4155 H         1 UNK         0.1032 
     83 H83       -71.5272   30.8737  -72.0574 H         1 UNK         0.0461 
     84 H84       -70.5986   29.9546  -70.1617 H         1 UNK         0.3453 
     85 H85       -70.0344   28.3054  -70.1077 H         1 UNK         0.3453 
     86 H86       -72.4541   29.5895  -74.4693 H         1 UNK         0.2984 
     87 H87       -71.3164   30.6147  -76.4483 H         1 UNK         0.0554 
     88 H88       -69.2031   30.5100  -77.7389 H         1 UNK         0.0847 
     89 H89       -68.3048   30.0634  -76.2886 H         1 UNK         0.0847 
     90 H90       -69.0546   31.6486  -76.4119 H         1 UNK         0.0847 
     91 H91       -69.7743   28.1139  -76.5301 H         1 UNK         0.3141 
     92 H92       -70.9479   26.2988  -77.5055 H         1 UNK         0.0743 
     93 H93       -70.3557   26.0002  -75.1090 H         1 UNK         0.0784 
     94 H94       -72.0499   25.8949  -74.6666 H         1 UNK         0.0784 
     95 H95       -71.3120   24.6277  -75.6456 H         1 UNK         0.0784 
     96 H96       -73.5508   25.4073  -76.6091 H         1 UNK         0.3213 
     97 H97       -75.2729   26.2163  -79.6444 H         1 UNK         0.0855 
     98 H98       -74.2651   23.9666  -79.9518 H         1 UNK         0.0814 
     99 H99       -75.9059   23.8292  -79.3404 H         1 UNK         0.0814 
    100 H100      -74.5360   23.5789  -78.2601 H         1 UNK         0.0814 
    101 H101      -76.0252   25.1726  -77.0378 H         1 UNK         0.3105 
    102 H102      -77.1417   28.2610  -75.6988 H         1 UNK         0.0547 
    103 H103      -79.2450   26.7821  -75.5388 H         1 UNK         0.0837 
    104 H104      -79.0871   27.7455  -76.9985 H         1 UNK         0.0837 
    105 H105      -78.7436   26.0294  -77.0479 H         1 UNK         0.0837 
    106 H106      -77.1115   25.3929  -75.0498 H         1 UNK         0.3020 
    107 H107      -74.0351   25.5029  -73.4730 H         1 UNK         0.1245 
    108 H108      -75.0522   26.7272  -71.5546 H         1 UNK         0.0781 
    109 H109      -74.7265   25.0529  -71.2394 H         1 UNK         0.0781 
    110 H110      -76.5128   26.8506  -69.4282 H         1 UNK         0.0836 
    111 H111      -78.2330   26.5843  -69.5279 H         1 UNK         0.0836 
    112 H112      -76.2557   23.6951  -73.1686 H         1 UNK         0.3022 
    113 H113      -75.7518   22.0220  -76.2599 H         1 UNK         0.0747 
    114 H114      -75.4768   20.0230  -74.8188 H         1 UNK         0.0793 
    115 H115      -74.0084   20.9839  -74.7956 H         1 UNK         0.0793 
    116 H116      -75.1080   21.0401  -73.4248 H         1 UNK         0.0793 
    117 H117      -77.5022   21.4006  -74.1345 H         1 UNK         0.3047 
    118 H118      -79.9209   21.8154  -74.8439 H         1 UNK         0.0822 
    119 H119      -78.9453   22.3815  -72.6185 H         1 UNK         0.0807 
    120 H120      -80.5706   23.0264  -72.7352 H         1 UNK         0.0807 
    121 H121      -79.1866   24.0961  -72.9238 H         1 UNK         0.0807 
    122 H122      -80.6181   24.6723  -74.8363 H         1 UNK         0.2946 
    123 H123      -81.3633   25.2012  -77.8179 H         1 UNK         0.1144 
    124 H124      -82.9847   23.4759  -78.5604 H         1 UNK         0.0793 
    125 H125      -83.8364   24.9600  -78.1768 H         1 UNK         0.0793 
    126 H126      -83.8698   23.6075  -77.0456 H         1 UNK         0.0793 
    127 H127      -82.6768   25.2912  -75.1479 H         1 UNK         0.2896 
@<TRIPOS>BOND
     1    1    2 1    
     2    1   67 1    
     3    1   68 1    
     4    1   69 1    
     5    2    3 2    
     6    2    4 am   BACKBONE|DICT|INTERRES
     7    4    5 1    
     8    4   70 1    
     9    5    6 1    
    10    5   65 1    
    11    5   71 1    
    12    6    7 1    
    13    6   72 1    
    14    6   73 1    
    15    7    8 1    
    16    8    9 1    
    17    8   74 1    
    18    8   75 1    
    19    9   10 ar   
    20    9   14 ar   
    21   10   11 ar   
    22   10   76 1    
    23   11   12 ar   
    24   11   48 1    
    25   12   13 ar   
    26   12   77 1    
    27   13   14 ar   
    28   13   15 1    
    29   14   78 1    
    30   15   16 1    
    31   15   79 1    
    32   15   80 1    
    33   16   17 1    
    34   17   18 1    
    35   17   81 1    
    36   17   82 1    
    37   18   19 1    
    38   18   22 1    
    39   18   83 1    
    40   19   20 am   BACKBONE|DICT|INTERRES
    41   19   21 2    
    42   20   84 1    
    43   20   85 1    
    44   22   23 am   BACKBONE|DICT|INTERRES
    45   22   86 1    
    46   23   24 2    
    47   23   25 1    
    48   25   26 1    
    49   25   27 1    
    50   25   87 1    
    51   26   88 1    
    52   26   89 1    
    53   26   90 1    
    54   27   28 am   BACKBONE|DICT|INTERRES
    55   27   91 1    
    56   28   29 2    
    57   28   30 1    
    58   30   31 1    
    59   30   32 1    
    60   30   92 1    
    61   31   93 1    
    62   31   94 1    
    63   31   95 1    
    64   32   33 am   BACKBONE|DICT|INTERRES
    65   32   96 1    
    66   33   34 2    
    67   33   35 1    
    68   35   36 1    
    69   35   37 1    
    70   35   97 1    
    71   36   98 1    
    72   36   99 1    
    73   36  100 1    
    74   37   38 am   BACKBONE|DICT|INTERRES
    75   37  101 1    
    76   38   39 2    
    77   38   40 1    
    78   40   41 1    
    79   40   42 1    
    80   40  102 1    
    81   41  103 1    
    82   41  104 1    
    83   41  105 1    
    84   42   43 am   BACKBONE|DICT|INTERRES
    85   42  106 1    
    86   43   44 2    
    87   43   45 1    
    88   45   46 1    
    89   45   49 1    
    90   45  107 1    
    91   46   47 1    
    92   46  108 1    
    93   46  109 1    
    94   47   48 1    
    95   48  110 1    
    96   48  111 1    
    97   49   50 am   BACKBONE|DICT|INTERRES
    98   49  112 1    
    99   50   51 2    
   100   50   52 1    
   101   52   53 1    
   102   52   54 1    
   103   52  113 1    
   104   53  114 1    
   105   53  115 1    
   106   53  116 1    
   107   54   55 am   BACKBONE|DICT|INTERRES
   108   54  117 1    
   109   55   56 2    
   110   55   57 1    
   111   57   58 1    
   112   57   59 1    
   113   57  118 1    
   114   58  119 1    
   115   58  120 1    
   116   58  121 1    
   117   59   60 am   BACKBONE|DICT|INTERRES
   118   59  122 1    
   119   60   61 2    
   120   60   62 1    
   121   62   63 1    
   122   62   64 1    
   123   62  123 1    
   124   63  124 1    
   125   63  125 1    
   126   63  126 1    
   127   64   65 am   BACKBONE|DICT|INTERRES
   128   64  127 1    
   129   65   66 2    
@<TRIPOS>SUBSTRUCTURE
     1 UNK         1 GROUP             0       ****    0 ROOT    
