@<TRIPOS>MOLECULE
3R135
127   129    1
SMALL
USER_CHARGES


@<TRIPOS>ATOM
      1 CA        -85.9860   26.4751  -74.4560 C.3       0 UNK        -0.1998 
      2 C         -84.8691   27.2802  -75.1030 C.2       0 UNK         0.4909 
      3 O         -85.0784   27.8789  -76.1582 O.2       0 UNK        -0.5240 
      4 N         -83.6819   27.2968  -74.4804 N.am      1 UNK        -0.4739 
      5 CA        -82.4931   28.0154  -74.9656 C.3       1 UNK         0.0864 
      6 C6        -81.4964   28.2971  -73.8067 C.3       11 UNK        -0.0881 
      7 S7        -80.6765   29.9159  -73.9935 S.3       11 UNK        -0.2682 
      8 C8        -80.1443   30.2683  -72.2886 C.3       11 UNK         0.0289 
      9 C9        -78.7964   29.6369  -71.9716 C.ar      11 UNK        -0.0687 
     10 C10       -78.7171   28.4416  -71.2484 C.ar      11 UNK        -0.0823 
     11 C11       -77.4713   27.8924  -70.9248 C.ar      11 UNK        -0.0830 
     12 C12       -76.3088   28.5461  -71.3363 C.ar      11 UNK        -0.1021 
     13 C13       -76.3698   29.7238  -72.0839 C.ar      11 UNK        -0.0753 
     14 C14       -77.6205   30.2682  -72.3901 C.ar      11 UNK        -0.0933 
     15 C15       -75.1001   30.3769  -72.6199 C.3       11 UNK         0.0166 
     16 S16       -73.8885   30.8143  -71.3287 S.3       11 UNK        -0.2615 
     17 C17       -72.7588   29.3729  -71.3051 C.3       11 UNK        -0.0865 
     18 CA        -71.5744   29.5178  -72.2985 C.3       10 UNK         0.0862 
     19 C         -70.4161   28.5217  -71.9902 C.2       10 UNK         0.5551 
     20 N         -69.8208   27.8550  -72.9733 N.am      10 UNK        -0.7319 
     21 O         -70.0330   28.3603  -70.8341 O.2       10 UNK        -0.5018 
     22 N         -72.0470   29.4266  -73.6874 N.am      10 UNK        -0.4509 
     23 C         -71.6582   30.2191  -74.6915 C.2       10 UNK         0.4899 
     24 O         -70.8879   31.1717  -74.5582 O.2       10 UNK        -0.4839 
     25 CA        -72.2239   29.8701  -76.0827 C.3       9 UNK         0.0222 
     26 CB        -71.4954   30.6022  -77.2293 C.3       9 UNK        -0.1966 
     27 N         -72.2712   28.4249  -76.3438 N.am      9 UNK        -0.4218 
     28 C         -71.2428   27.5605  -76.3153 C.2       9 UNK         0.5020 
     29 O         -70.0906   27.8896  -76.0286 O.2       9 UNK        -0.5274 
     30 CA        -71.5232   26.0735  -76.6134 C.3       8 UNK         0.0270 
     31 CB        -71.1361   25.2051  -75.4034 C.3       8 UNK        -0.1976 
     32 N         -72.9127   25.7854  -76.9764 N.am      8 UNK        -0.4313 
     33 C         -73.4816   26.0571  -78.1586 C.2       8 UNK         0.5041 
     34 O         -72.8704   26.5170  -79.1233 O.2       8 UNK        -0.5577 
     35 CA        -75.0016   25.8286  -78.2621 C.3       7 UNK         0.0284 
     36 CB        -75.3103   24.3730  -78.6441 C.3       7 UNK        -0.1958 
     37 N         -75.7184   26.1802  -77.0303 N.am      7 UNK        -0.4454 
     38 C         -75.7487   27.4074  -76.4893 C.2       7 UNK         0.5089 
     39 O         -75.2061   28.3911  -76.9914 O.2       7 UNK        -0.5125 
     40 CA        -76.4389   27.5491  -75.1276 C.3       6 UNK         0.0408 
     41 CB        -77.9623   27.6550  -75.2769 C.3       6 UNK        -0.1791 
     42 N         -76.1018   26.4404  -74.2375 N.am      6 UNK        -0.4762 
     43 C         -74.9215   26.2852  -73.6210 C.2       6 UNK         0.5007 
     44 O         -73.9876   27.0856  -73.7124 O.2       6 UNK        -0.5032 
     45 CA        -74.7410   24.9913  -72.7974 C.3       5 UNK         0.0783 
     46 C46       -75.2385   25.1388  -71.3352 C.3       11 UNK        -0.0857 
     47 S47       -77.0631   25.1465  -71.1523 S.3       11 UNK        -0.2512 
     48 C48       -77.3734   26.6095  -70.1103 C.3       11 UNK         0.0225 
     49 N         -75.3361   23.8211  -73.4500 N.am      5 UNK        -0.4615 
     50 C         -74.9520   23.3123  -74.6269 C.2       4 UNK         0.5053 
     51 O         -74.0071   23.7459  -75.2819 O.2       4 UNK        -0.5105 
     52 CA        -75.7954   22.1560  -75.1927 C.3       4 UNK         0.0263 
     53 CB        -75.2704   20.8073  -74.6765 C.3       4 UNK        -0.1981 
     54 N         -77.2299   22.2696  -74.9021 N.am      4 UNK        -0.4224 
     55 C         -78.0055   23.3039  -75.2568 C.2       3 UNK         0.4895 
     56 O         -77.5867   24.3002  -75.8509 O.2       3 UNK        -0.5091 
     57 CA        -79.4761   23.2283  -74.8126 C.3       3 UNK         0.0250 
     58 CB        -79.6021   23.5535  -73.3149 C.3       3 UNK        -0.1996 
     59 N         -80.3367   24.1514  -75.5522 N.am      3 UNK        -0.4254 
     60 C         -80.6600   24.0574  -76.8492 C.2       2 UNK         0.5004 
     61 O         -80.2924   23.1348  -77.5787 O.2       2 UNK        -0.5226 
     62 CA        -81.5728   25.1596  -77.4215 C.3       2 UNK         0.0269 
     63 CB        -82.7428   24.5555  -78.2197 C.3       2 UNK        -0.1926 
     64 N         -82.1243   26.0194  -76.3670 N.am      2 UNK        -0.4687 
     65 C         -81.8057   27.3048  -76.1578 C.2       1 UNK         0.5165 
     66 O         -81.0065   27.9257  -76.8587 O.2       1 UNK        -0.5079 
     67 H67       -86.3290   25.6957  -75.1360 H         1 UNK         0.0900 
     68 H68       -86.8312   27.1236  -74.2271 H         1 UNK         0.0900 
     69 H69       -85.6635   25.9996  -73.5299 H         1 UNK         0.0900 
     70 H70       -83.5719   26.7924  -73.6116 H         1 UNK         0.2959 
     71 H71       -82.8482   28.9737  -75.3527 H         1 UNK         0.1079 
     72 H72       -80.7471   27.5100  -73.7039 H         1 UNK         0.0837 
     73 H73       -82.0300   28.3185  -72.8553 H         1 UNK         0.0837 
     74 H74       -80.9048   29.9421  -71.5778 H         1 UNK         0.0685 
     75 H75       -80.0687   31.3500  -72.1678 H         1 UNK         0.0685 
     76 H76       -79.6237   27.9470  -70.9276 H         1 UNK         0.1434 
     77 H77       -75.3523   28.1254  -71.0826 H         1 UNK         0.1329 
     78 H78       -77.6848   31.1803  -72.9676 H         1 UNK         0.1335 
     79 H79       -75.3481   31.2906  -73.1619 H         1 UNK         0.0680 
     80 H80       -74.6454   29.7130  -73.3518 H         1 UNK         0.0680 
     81 H81       -72.3939   29.2890  -70.2798 H         1 UNK         0.1032 
     82 H82       -73.2956   28.4474  -71.5032 H         1 UNK         0.1032 
     83 H83       -71.1387   30.5048  -72.1337 H         1 UNK         0.0461 
     84 H84       -69.0683   27.2241  -72.7492 H         1 UNK         0.3453 
     85 H85       -70.0750   28.0101  -73.9412 H         1 UNK         0.3453 
     86 H86       -72.6635   28.6445  -73.8858 H         1 UNK         0.2984 
     87 H87       -73.2600   30.2114  -76.0801 H         1 UNK         0.0554 
     88 H88       -71.9350   30.3590  -78.1967 H         1 UNK         0.0847 
     89 H89       -70.4369   30.3426  -77.2668 H         1 UNK         0.0847 
     90 H90       -71.5611   31.6842  -77.1081 H         1 UNK         0.0847 
     91 H91       -73.1914   28.0664  -76.5748 H         1 UNK         0.3141 
     92 H92       -70.8852   25.7901  -77.4530 H         1 UNK         0.0743 
     93 H93       -70.0885   25.3457  -75.1339 H         1 UNK         0.0784 
     94 H94       -71.7345   25.4511  -74.5253 H         1 UNK         0.0784 
     95 H95       -71.2725   24.1447  -75.6160 H         1 UNK         0.0784 
     96 H96       -73.4718   25.3123  -76.2702 H         1 UNK         0.3213 
     97 H97       -75.3804   26.4772  -79.0548 H         1 UNK         0.0855 
     98 H98       -74.9046   23.6715  -77.9159 H         1 UNK         0.0814 
     99 H99       -74.8717   24.1250  -79.6115 H         1 UNK         0.0814 
    100 H100      -76.3840   24.1980  -78.7184 H         1 UNK         0.0814 
    101 H101      -76.2370   25.4389  -76.5636 H         1 UNK         0.3105 
    102 H102      -76.0882   28.4749  -74.6718 H         1 UNK         0.0547 
    103 H103      -78.4385   27.7670  -74.3039 H         1 UNK         0.0837 
    104 H104      -78.2361   28.5273  -75.8715 H         1 UNK         0.0837 
    105 H105      -78.3946   26.7821  -75.7655 H         1 UNK         0.0837 
    106 H106      -76.7897   25.7055  -74.1497 H         1 UNK         0.3020 
    107 H107      -73.6636   24.8139  -72.7573 H         1 UNK         0.1245 
    108 H108      -74.7968   26.0157  -70.8630 H         1 UNK         0.0781 
    109 H109      -74.8677   24.2945  -70.7520 H         1 UNK         0.0781 
    110 H110      -76.5937   26.7006  -69.3526 H         1 UNK         0.0836 
    111 H111      -78.3028   26.4484  -69.5620 H         1 UNK         0.0836 
    112 H112      -76.1319   23.4137  -72.9813 H         1 UNK         0.3022 
    113 H113      -75.6835   22.1693  -76.2779 H         1 UNK         0.0747 
    114 H114      -75.7903   19.9721  -75.1462 H         1 UNK         0.0793 
    115 H115      -74.2087   20.6913  -74.9000 H         1 UNK         0.0793 
    116 H116      -75.3881   20.7129  -73.5962 H         1 UNK         0.0793 
    117 H117      -77.6504   21.4968  -74.4058 H         1 UNK         0.3047 
    118 H118      -79.8355   22.2123  -74.9896 H         1 UNK         0.0822 
    119 H119      -78.9834   22.8922  -72.7071 H         1 UNK         0.0807 
    120 H120      -80.6292   23.4351  -72.9691 H         1 UNK         0.0807 
    121 H121      -79.2946   24.5776  -73.0995 H         1 UNK         0.0807 
    122 H122      -80.6640   24.9611  -75.0494 H         1 UNK         0.2946 
    123 H123      -80.9576   25.7457  -78.1081 H         1 UNK         0.1144 
    124 H124      -82.3816   23.9551  -79.0558 H         1 UNK         0.0793 
    125 H125      -83.3805   25.3352  -78.6368 H         1 UNK         0.0793 
    126 H126      -83.3650   23.9103  -77.5984 H         1 UNK         0.0793 
    127 H127      -82.8057   25.5964  -75.7524 H         1 UNK         0.2896 
@<TRIPOS>BOND
     1    1    2 1    
     2    1   67 1    
     3    1   68 1    
     4    1   69 1    
     5    2    3 2    
     6    2    4 am   BACKBONE|DICT|INTERRES
     7    4    5 1    
     8    4   70 1    
     9    5    6 1    
    10    5   65 1    
    11    5   71 1    
    12    6    7 1    
    13    6   72 1    
    14    6   73 1    
    15    7    8 1    
    16    8    9 1    
    17    8   74 1    
    18    8   75 1    
    19    9   10 ar   
    20    9   14 ar   
    21   10   11 ar   
    22   10   76 1    
    23   11   12 ar   
    24   11   48 1    
    25   12   13 ar   
    26   12   77 1    
    27   13   14 ar   
    28   13   15 1    
    29   14   78 1    
    30   15   16 1    
    31   15   79 1    
    32   15   80 1    
    33   16   17 1    
    34   17   18 1    
    35   17   81 1    
    36   17   82 1    
    37   18   19 1    
    38   18   22 1    
    39   18   83 1    
    40   19   20 am   BACKBONE|DICT|INTERRES
    41   19   21 2    
    42   20   84 1    
    43   20   85 1    
    44   22   23 am   BACKBONE|DICT|INTERRES
    45   22   86 1    
    46   23   24 2    
    47   23   25 1    
    48   25   26 1    
    49   25   27 1    
    50   25   87 1    
    51   26   88 1    
    52   26   89 1    
    53   26   90 1    
    54   27   28 am   BACKBONE|DICT|INTERRES
    55   27   91 1    
    56   28   29 2    
    57   28   30 1    
    58   30   31 1    
    59   30   32 1    
    60   30   92 1    
    61   31   93 1    
    62   31   94 1    
    63   31   95 1    
    64   32   33 am   BACKBONE|DICT|INTERRES
    65   32   96 1    
    66   33   34 2    
    67   33   35 1    
    68   35   36 1    
    69   35   37 1    
    70   35   97 1    
    71   36   98 1    
    72   36   99 1    
    73   36  100 1    
    74   37   38 am   BACKBONE|DICT|INTERRES
    75   37  101 1    
    76   38   39 2    
    77   38   40 1    
    78   40   41 1    
    79   40   42 1    
    80   40  102 1    
    81   41  103 1    
    82   41  104 1    
    83   41  105 1    
    84   42   43 am   BACKBONE|DICT|INTERRES
    85   42  106 1    
    86   43   44 2    
    87   43   45 1    
    88   45   46 1    
    89   45   49 1    
    90   45  107 1    
    91   46   47 1    
    92   46  108 1    
    93   46  109 1    
    94   47   48 1    
    95   48  110 1    
    96   48  111 1    
    97   49   50 am   BACKBONE|DICT|INTERRES
    98   49  112 1    
    99   50   51 2    
   100   50   52 1    
   101   52   53 1    
   102   52   54 1    
   103   52  113 1    
   104   53  114 1    
   105   53  115 1    
   106   53  116 1    
   107   54   55 am   BACKBONE|DICT|INTERRES
   108   54  117 1    
   109   55   56 2    
   110   55   57 1    
   111   57   58 1    
   112   57   59 1    
   113   57  118 1    
   114   58  119 1    
   115   58  120 1    
   116   58  121 1    
   117   59   60 am   BACKBONE|DICT|INTERRES
   118   59  122 1    
   119   60   61 2    
   120   60   62 1    
   121   62   63 1    
   122   62   64 1    
   123   62  123 1    
   124   63  124 1    
   125   63  125 1    
   126   63  126 1    
   127   64   65 am   BACKBONE|DICT|INTERRES
   128   64  127 1    
   129   65   66 2    
@<TRIPOS>SUBSTRUCTURE
     1 UNK         1 GROUP             0       ****    0 ROOT    
