@<TRIPOS>MOLECULE
3R135
127   129    1
SMALL
USER_CHARGES


@<TRIPOS>ATOM
      1 CA        -76.3133   21.8724  -74.2852 C.3       0 UNK        -0.1998 
      2 C         -77.4630   22.7555  -73.8289 C.2       0 UNK         0.4909 
      3 O         -78.4740   22.8559  -74.5270 O.2       0 UNK        -0.5240 
      4 N         -77.3329   23.3773  -72.6470 N.am      1 UNK        -0.4739 
      5 CA        -78.2282   24.3875  -72.0484 C.3       1 UNK         0.0864 
      6 C6        -78.2617   25.7106  -72.8948 C.3       11 UNK        -0.0881 
      7 S7        -79.8722   26.4688  -73.3275 S.3       11 UNK        -0.2682 
      8 C8        -80.0115   27.7769  -72.0702 C.3       11 UNK         0.0289 
      9 C9        -79.0317   28.9076  -72.3388 C.ar      11 UNK        -0.0687 
     10 C10       -79.2068   29.7258  -73.4575 C.ar      11 UNK        -0.0823 
     11 C11       -78.2894   30.7386  -73.7456 C.ar      11 UNK        -0.0830 
     12 C12       -77.1993   30.9429  -72.8947 C.ar      11 UNK        -0.1021 
     13 C13       -77.0239   30.1420  -71.7621 C.ar      11 UNK        -0.0753 
     14 C14       -77.9453   29.1273  -71.4863 C.ar      11 UNK        -0.0933 
     15 C15       -75.8306   30.3639  -70.8471 C.3       11 UNK         0.0166 
     16 S16       -74.5566   29.1028  -71.1406 S.3       11 UNK        -0.2615 
     17 C17       -73.0543   29.9711  -70.5747 C.3       11 UNK        -0.0865 
     18 CA        -72.3526   30.7533  -71.7176 C.3       10 UNK         0.0862 
     19 C         -71.1065   31.5217  -71.1900 C.2       10 UNK         0.5551 
     20 N         -69.9028   31.2607  -71.6853 N.am      10 UNK        -0.7319 
     21 O         -71.2379   32.3766  -70.3175 O.2       10 UNK        -0.5018 
     22 N         -72.0991   29.8938  -72.8848 N.am      10 UNK        -0.4509 
     23 C         -71.9609   30.3095  -74.1468 C.2       10 UNK         0.4899 
     24 O         -71.9724   31.4950  -74.4793 O.2       10 UNK        -0.4839 
     25 CA        -71.8019   29.2316  -75.2355 C.3       9 UNK         0.0222 
     26 CB        -70.3180   28.8900  -75.4704 C.3       9 UNK        -0.1966 
     27 N         -72.6106   28.0190  -75.0362 N.am      9 UNK        -0.4218 
     28 C         -72.5002   27.0633  -74.1006 C.2       9 UNK         0.5020 
     29 O         -71.6809   27.0913  -73.1809 O.2       9 UNK        -0.5274 
     30 CA        -73.4701   25.8729  -74.2007 C.3       8 UNK         0.0270 
     31 CB        -74.7835   26.1711  -73.4666 C.3       8 UNK        -0.1976 
     32 N         -73.7661   25.4823  -75.5804 N.am      8 UNK        -0.4313 
     33 C         -72.8805   24.9171  -76.4136 C.2       8 UNK         0.5041 
     34 O         -71.7268   24.6237  -76.0977 O.2       8 UNK        -0.5577 
     35 CA        -73.3612   24.6353  -77.8440 C.3       7 UNK         0.0284 
     36 CB        -74.1526   23.3195  -77.9013 C.3       7 UNK        -0.1958 
     37 N         -74.1779   25.7365  -78.3584 N.am      7 UNK        -0.4454 
     38 C         -73.6687   26.8642  -78.8746 C.2       7 UNK         0.5089 
     39 O         -72.4639   27.0605  -79.0353 O.2       7 UNK        -0.5125 
     40 CA        -74.6634   27.9663  -79.2838 C.3       6 UNK         0.0408 
     41 CB        -75.0165   27.8402  -80.7742 C.3       6 UNK        -0.1791 
     42 N         -75.8987   27.9843  -78.4951 N.am      6 UNK        -0.4762 
     43 C         -75.9669   28.2616  -77.1838 C.2       6 UNK         0.5007 
     44 O         -74.9812   28.4891  -76.4833 O.2       6 UNK        -0.5032 
     45 CA        -77.3726   28.2146  -76.5415 C.3       5 UNK         0.0783 
     46 C46       -78.1951   29.4924  -76.8622 C.3       11 UNK        -0.0857 
     47 S47       -77.4111   31.0641  -76.3491 S.3       11 UNK        -0.2512 
     48 C48       -78.4733   31.6105  -74.9769 C.3       11 UNK         0.0225 
     49 N         -78.1200   27.0113  -76.9387 N.am      5 UNK        -0.4615 
     50 C         -77.6850   25.7456  -76.8760 C.2       4 UNK         0.5053 
     51 O         -76.5963   25.4126  -76.4004 O.2       4 UNK        -0.5105 
     52 CA        -78.6143   24.6913  -77.4943 C.3       4 UNK         0.0263 
     53 CB        -77.8639   23.4115  -77.9027 C.3       4 UNK        -0.1981 
     54 N         -79.6886   24.3348  -76.5708 N.am      4 UNK        -0.4224 
     55 C         -80.8894   24.9296  -76.5411 C.2       3 UNK         0.4895 
     56 O         -81.1646   25.9154  -77.2276 O.2       3 UNK        -0.5091 
     57 CA        -81.9902   24.3249  -75.6510 C.3       3 UNK         0.0250 
     58 CB        -82.9270   23.4533  -76.5140 C.3       3 UNK        -0.1996 
     59 N         -81.4794   23.5574  -74.5093 N.am      3 UNK        -0.4254 
     60 C         -82.2152   23.1760  -73.4506 C.2       2 UNK         0.5004 
     61 O         -83.4173   23.4144  -73.3279 O.2       2 UNK        -0.5226 
     62 CA        -81.4970   22.4035  -72.3280 C.3       2 UNK         0.0269 
     63 CB        -81.6059   20.8880  -72.5606 C.3       2 UNK        -0.1926 
     64 N         -80.0884   22.7790  -72.2649 N.am      2 UNK        -0.4687 
     65 C         -79.6149   23.8459  -71.6138 C.2       1 UNK         0.5165 
     66 O         -80.2326   24.4138  -70.7113 O.2       1 UNK        -0.5079 
     67 H67       -75.5909   21.6997  -73.4878 H         1 UNK         0.0900 
     68 H68       -75.7941   22.3434  -75.1188 H         1 UNK         0.0900 
     69 H69       -76.6898   20.9057  -74.6179 H         1 UNK         0.0900 
     70 H70       -76.5027   23.1882  -72.1020 H         1 UNK         0.2959 
     71 H71       -77.7473   24.6419  -71.1021 H         1 UNK         0.1079 
     72 H72       -77.6431   26.4598  -72.4009 H         1 UNK         0.0837 
     73 H73       -77.7675   25.5576  -73.8538 H         1 UNK         0.0837 
     74 H74       -81.0283   28.1715  -72.0813 H         1 UNK         0.0685 
     75 H75       -79.8579   27.3457  -71.0796 H         1 UNK         0.0685 
     76 H76       -80.0491   29.5549  -74.1139 H         1 UNK         0.1434 
     77 H77       -76.4828   31.7208  -73.1212 H         1 UNK         0.1329 
     78 H78       -77.8018   28.4974  -70.6190 H         1 UNK         0.1335 
     79 H79       -75.4113   31.3577  -71.0124 H         1 UNK         0.0680 
     80 H80       -76.1446   30.3282  -69.8030 H         1 UNK         0.0680 
     81 H81       -73.3160   30.6367  -69.7496 H         1 UNK         0.1032 
     82 H82       -72.3741   29.2270  -70.1561 H         1 UNK         0.1032 
     83 H83       -73.0496   31.5278  -72.0436 H         1 UNK         0.0461 
     84 H84       -69.1027   31.7666  -71.3396 H         1 UNK         0.3453 
     85 H85       -69.7913   30.5626  -72.4027 H         1 UNK         0.3453 
     86 H86       -72.0389   28.8947  -72.7107 H         1 UNK         0.2984 
     87 H87       -72.1821   29.6716  -76.1590 H         1 UNK         0.0554 
     88 H88       -70.2011   28.1864  -76.2949 H         1 UNK         0.0847 
     89 H89       -69.8534   28.4512  -74.5870 H         1 UNK         0.0847 
     90 H90       -69.7486   29.7851  -75.7245 H         1 UNK         0.0847 
     91 H91       -73.4102   27.9542  -75.6644 H         1 UNK         0.3141 
     92 H92       -72.9956   25.0212  -73.7087 H         1 UNK         0.0743 
     93 H93       -74.6006   26.3998  -72.4165 H         1 UNK         0.0784 
     94 H94       -75.3124   27.0197  -73.9030 H         1 UNK         0.0784 
     95 H95       -75.4445   25.3072  -73.4980 H         1 UNK         0.0784 
     96 H96       -74.7164   25.6350  -75.9085 H         1 UNK         0.3213 
     97 H97       -72.4796   24.5220  -78.4792 H         1 UNK         0.0855 
     98 H98       -75.0188   23.3408  -77.2415 H         1 UNK         0.0814 
     99 H99       -73.5301   22.4801  -77.5886 H         1 UNK         0.0814 
    100 H100      -74.5002   23.1062  -78.9120 H         1 UNK         0.0814 
    101 H101      -75.1758   25.6784  -78.2096 H         1 UNK         0.3105 
    102 H102      -74.1639   28.9259  -79.1339 H         1 UNK         0.0547 
    103 H103      -75.6435   28.6677  -81.1063 H         1 UNK         0.0837 
    104 H104      -74.1162   27.8525  -81.3904 H         1 UNK         0.0837 
    105 H105      -75.5438   26.9098  -80.9883 H         1 UNK         0.0837 
    106 H106      -76.7580   27.7931  -78.9900 H         1 UNK         0.3020 
    107 H107      -77.2307   28.1601  -75.4594 H         1 UNK         0.1245 
    108 H108      -79.1802   29.4202  -76.4001 H         1 UNK         0.0781 
    109 H109      -78.3844   29.5578  -77.9352 H         1 UNK         0.0781 
    110 H110      -78.2245   32.6437  -74.7298 H         1 UNK         0.0836 
    111 H111      -79.5161   31.6199  -75.2983 H         1 UNK         0.0836 
    112 H112      -79.0504   27.1648  -77.3045 H         1 UNK         0.3022 
    113 H113      -79.0376   25.1144  -78.4080 H         1 UNK         0.0747 
    114 H114      -78.5338   22.6985  -78.3833 H         1 UNK         0.0793 
    115 H115      -77.4102   22.9134  -77.0461 H         1 UNK         0.0793 
    116 H116      -77.0699   23.6368  -78.6151 H         1 UNK         0.0793 
    117 H117      -79.4541   23.5979  -75.9122 H         1 UNK         0.3047 
    118 H118      -82.5630   25.1664  -75.2551 H         1 UNK         0.0822 
    119 H119      -83.2783   24.0012  -77.3896 H         1 UNK         0.0807 
    120 H120      -83.8129   23.1395  -75.9625 H         1 UNK         0.0807 
    121 H121      -82.4204   22.5563  -76.8720 H         1 UNK         0.0807 
    122 H122      -80.4849   23.3661  -74.4940 H         1 UNK         0.2946 
    123 H123      -81.9877   22.6476  -71.3828 H         1 UNK         0.1144 
    124 H124      -82.6500   20.5748  -72.6029 H         1 UNK         0.0793 
    125 H125      -81.1324   20.3290  -71.7533 H         1 UNK         0.0793 
    126 H126      -81.1360   20.5871  -73.4979 H         1 UNK         0.0793 
    127 H127      -79.4911   22.4134  -72.9994 H         1 UNK         0.2896 
@<TRIPOS>BOND
     1    1    2 1    
     2    1   67 1    
     3    1   68 1    
     4    1   69 1    
     5    2    3 2    
     6    2    4 am   BACKBONE|DICT|INTERRES
     7    4    5 1    
     8    4   70 1    
     9    5    6 1    
    10    5   65 1    
    11    5   71 1    
    12    6    7 1    
    13    6   72 1    
    14    6   73 1    
    15    7    8 1    
    16    8    9 1    
    17    8   74 1    
    18    8   75 1    
    19    9   10 ar   
    20    9   14 ar   
    21   10   11 ar   
    22   10   76 1    
    23   11   12 ar   
    24   11   48 1    
    25   12   13 ar   
    26   12   77 1    
    27   13   14 ar   
    28   13   15 1    
    29   14   78 1    
    30   15   16 1    
    31   15   79 1    
    32   15   80 1    
    33   16   17 1    
    34   17   18 1    
    35   17   81 1    
    36   17   82 1    
    37   18   19 1    
    38   18   22 1    
    39   18   83 1    
    40   19   20 am   BACKBONE|DICT|INTERRES
    41   19   21 2    
    42   20   84 1    
    43   20   85 1    
    44   22   23 am   BACKBONE|DICT|INTERRES
    45   22   86 1    
    46   23   24 2    
    47   23   25 1    
    48   25   26 1    
    49   25   27 1    
    50   25   87 1    
    51   26   88 1    
    52   26   89 1    
    53   26   90 1    
    54   27   28 am   BACKBONE|DICT|INTERRES
    55   27   91 1    
    56   28   29 2    
    57   28   30 1    
    58   30   31 1    
    59   30   32 1    
    60   30   92 1    
    61   31   93 1    
    62   31   94 1    
    63   31   95 1    
    64   32   33 am   BACKBONE|DICT|INTERRES
    65   32   96 1    
    66   33   34 2    
    67   33   35 1    
    68   35   36 1    
    69   35   37 1    
    70   35   97 1    
    71   36   98 1    
    72   36   99 1    
    73   36  100 1    
    74   37   38 am   BACKBONE|DICT|INTERRES
    75   37  101 1    
    76   38   39 2    
    77   38   40 1    
    78   40   41 1    
    79   40   42 1    
    80   40  102 1    
    81   41  103 1    
    82   41  104 1    
    83   41  105 1    
    84   42   43 am   BACKBONE|DICT|INTERRES
    85   42  106 1    
    86   43   44 2    
    87   43   45 1    
    88   45   46 1    
    89   45   49 1    
    90   45  107 1    
    91   46   47 1    
    92   46  108 1    
    93   46  109 1    
    94   47   48 1    
    95   48  110 1    
    96   48  111 1    
    97   49   50 am   BACKBONE|DICT|INTERRES
    98   49  112 1    
    99   50   51 2    
   100   50   52 1    
   101   52   53 1    
   102   52   54 1    
   103   52  113 1    
   104   53  114 1    
   105   53  115 1    
   106   53  116 1    
   107   54   55 am   BACKBONE|DICT|INTERRES
   108   54  117 1    
   109   55   56 2    
   110   55   57 1    
   111   57   58 1    
   112   57   59 1    
   113   57  118 1    
   114   58  119 1    
   115   58  120 1    
   116   58  121 1    
   117   59   60 am   BACKBONE|DICT|INTERRES
   118   59  122 1    
   119   60   61 2    
   120   60   62 1    
   121   62   63 1    
   122   62   64 1    
   123   62  123 1    
   124   63  124 1    
   125   63  125 1    
   126   63  126 1    
   127   64   65 am   BACKBONE|DICT|INTERRES
   128   64  127 1    
   129   65   66 2    
@<TRIPOS>SUBSTRUCTURE
     1 UNK         1 GROUP             0       ****    0 ROOT    
