@<TRIPOS>MOLECULE
3R135
127   129    1
SMALL
USER_CHARGES


@<TRIPOS>ATOM
      1 CA        -86.4268   27.1138  -71.5379 C.3       0 UNK        -0.1998 
      2 C         -85.5247   26.8537  -72.7348 C.2       0 UNK         0.4909 
      3 O         -85.9976   26.3739  -73.7655 O.2       0 UNK        -0.5240 
      4 N         -84.2299   27.1711  -72.6073 N.am      1 UNK        -0.4739 
      5 CA        -83.2024   26.9532  -73.6338 C.3       1 UNK         0.0864 
      6 C6        -81.8970   27.7317  -73.3202 C.3       11 UNK        -0.0881 
      7 S7        -81.2263   27.4039  -71.6472 S.3       11 UNK        -0.2682 
      8 C8        -80.6302   29.0480  -71.1504 C.3       11 UNK         0.0289 
      9 C9        -79.3001   29.3835  -71.8079 C.ar      11 UNK        -0.0687 
     10 C10       -79.2642   30.0715  -73.0250 C.ar      11 UNK        -0.0823 
     11 C11       -78.0426   30.4032  -73.6200 C.ar      11 UNK        -0.0830 
     12 C12       -76.8522   30.0567  -72.9731 C.ar      11 UNK        -0.1021 
     13 C13       -76.8748   29.3509  -71.7681 C.ar      11 UNK        -0.0753 
     14 C14       -78.1014   29.0170  -71.1881 C.ar      11 UNK        -0.0933 
     15 C15       -75.5675   28.9584  -71.1021 C.3       11 UNK         0.0166 
     16 S16       -74.7298   27.6508  -72.0457 S.3       11 UNK        -0.2615 
     17 C17       -73.1240   27.5964  -71.1812 C.3       11 UNK        -0.0865 
     18 CA        -72.0855   28.6255  -71.7093 C.3       10 UNK         0.0862 
     19 C         -70.7267   28.4177  -70.9768 C.2       10 UNK         0.5551 
     20 N         -69.7172   27.8259  -71.6069 N.am      10 UNK        -0.7319 
     21 O         -70.5938   28.7957  -69.8156 O.2       10 UNK        -0.5018 
     22 N         -71.9976   28.6027  -73.1757 N.am      10 UNK        -0.4509 
     23 C         -71.2841   29.4346  -73.9463 C.2       10 UNK         0.4899 
     24 O         -70.7251   30.4471  -73.5227 O.2       10 UNK        -0.4839 
     25 CA        -71.1646   29.0598  -75.4412 C.3       9 UNK         0.0222 
     26 CB        -69.7862   29.4285  -76.0285 C.3       9 UNK        -0.1966 
     27 N         -71.4917   27.6523  -75.7270 N.am      9 UNK        -0.4218 
     28 C         -70.8917   26.5634  -75.2150 C.2       9 UNK         0.5020 
     29 O         -69.9136   26.6051  -74.4660 O.2       9 UNK        -0.5274 
     30 CA        -71.5368   25.2026  -75.5105 C.3       8 UNK         0.0270 
     31 CB        -72.5675   24.8621  -74.4196 C.3       8 UNK        -0.1976 
     32 N         -72.1871   25.1359  -76.8180 N.am      8 UNK        -0.4313 
     33 C         -71.5403   24.9865  -77.9808 C.2       8 UNK         0.5041 
     34 O         -70.3137   24.9511  -78.0865 O.2       8 UNK        -0.5577 
     35 CA        -72.4110   24.8290  -79.2343 C.3       7 UNK         0.0284 
     36 CB        -73.0313   23.4227  -79.2895 C.3       7 UNK        -0.1958 
     37 N         -73.4729   25.8344  -79.2732 N.am      7 UNK        -0.4454 
     38 C         -73.3676   27.0157  -79.8952 C.2       7 UNK         0.5089 
     39 O         -72.3693   27.3726  -80.5222 O.2       7 UNK        -0.5125 
     40 CA        -74.5808   27.9628  -79.8315 C.3       6 UNK         0.0408 
     41 CB        -75.4059   27.8587  -81.1242 C.3       6 UNK        -0.1791 
     42 N         -75.4644   27.7480  -78.6818 N.am      6 UNK        -0.4762 
     43 C         -75.1272   27.9907  -77.4072 C.2       6 UNK         0.5007 
     44 O         -74.0000   28.3338  -77.0501 O.2       6 UNK        -0.5032 
     45 CA        -76.2270   27.7601  -76.3484 C.3       5 UNK         0.0783 
     46 C46       -77.3520   28.8261  -76.4476 C.3       11 UNK        -0.0857 
     47 S47       -76.7797   30.5329  -76.1300 S.3       11 UNK        -0.2512 
     48 C48       -78.0240   31.1552  -74.9473 C.3       11 UNK         0.0225 
     49 N         -76.7983   26.4051  -76.3726 N.am      5 UNK        -0.4615 
     50 C         -76.1654   25.2338  -76.5291 C.2       4 UNK         0.5053 
     51 O         -74.9626   25.1183  -76.7676 O.2       4 UNK        -0.5105 
     52 CA        -77.0331   23.9734  -76.3651 C.3       4 UNK         0.0263 
     53 CB        -76.3014   22.6918  -76.8055 C.3       4 UNK        -0.1981 
     54 N         -77.4688   23.8186  -74.9759 N.am      4 UNK        -0.4224 
     55 C         -78.4702   24.5007  -74.4077 C.2       3 UNK         0.4895 
     56 O         -79.1479   25.3440  -75.0017 O.2       3 UNK        -0.5091 
     57 CA        -78.7248   24.2314  -72.9176 C.3       3 UNK         0.0250 
     58 CB        -78.1022   25.3489  -72.0643 C.3       3 UNK        -0.1996 
     59 N         -80.1607   24.1554  -72.6513 N.am      3 UNK        -0.4254 
     60 C         -80.9406   23.1154  -72.9843 C.2       2 UNK         0.5004 
     61 O         -80.5074   22.0575  -73.4433 O.2       2 UNK        -0.5226 
     62 CA        -82.4596   23.2737  -72.7758 C.3       2 UNK         0.0269 
     63 CB        -82.8951   22.6205  -71.4541 C.3       2 UNK        -0.1926 
     64 N         -82.8952   24.6722  -72.7858 N.am      2 UNK        -0.4687 
     65 C         -82.9079   25.4581  -73.8728 C.2       1 UNK         0.5165 
     66 O         -82.6891   25.0517  -75.0146 O.2       1 UNK        -0.5079 
     67 H67       -87.2239   27.8044  -71.8119 H         1 UNK         0.0900 
     68 H68       -85.8787   27.5441  -70.6999 H         1 UNK         0.0900 
     69 H69       -86.8826   26.1825  -71.2026 H         1 UNK         0.0900 
     70 H70       -83.8933   27.5639  -71.7390 H         1 UNK         0.2959 
     71 H71       -83.5975   27.3410  -74.5758 H         1 UNK         0.1079 
     72 H72       -81.1213   27.5117  -74.0575 H         1 UNK         0.0837 
     73 H73       -82.0987   28.7988  -73.4189 H         1 UNK         0.0837 
     74 H74       -80.5158   29.0622  -70.0655 H         1 UNK         0.0685 
     75 H75       -81.3795   29.8062  -71.3828 H         1 UNK         0.0685 
     76 H76       -80.1904   30.3527  -73.5067 H         1 UNK         0.1434 
     77 H77       -75.9005   30.3174  -73.4158 H         1 UNK         0.1329 
     78 H78       -78.1256   28.4734  -70.2535 H         1 UNK         0.1335 
     79 H79       -75.7370   28.6155  -70.0803 H         1 UNK         0.0680 
     80 H80       -74.9212   29.8349  -71.0366 H         1 UNK         0.0680 
     81 H81       -73.2911   27.7367  -70.1112 H         1 UNK         0.1032 
     82 H82       -72.7357   26.5816  -71.2894 H         1 UNK         0.1032 
     83 H83       -72.4349   29.6229  -71.4371 H         1 UNK         0.0461 
     84 H84       -69.8202   27.5020  -72.5619 H         1 UNK         0.3453 
     85 H85       -68.8423   27.6963  -71.1246 H         1 UNK         0.3453 
     86 H86       -72.4501   27.8206  -73.6223 H         1 UNK         0.2984 
     87 H87       -71.9140   29.6579  -75.9607 H         1 UNK         0.0554 
     88 H88       -69.7227   29.1662  -77.0845 H         1 UNK         0.0847 
     89 H89       -68.9744   28.9206  -75.5069 H         1 UNK         0.0847 
     90 H90       -69.6005   30.5003  -75.9511 H         1 UNK         0.0847 
     91 H91       -72.3180   27.5258  -76.3052 H         1 UNK         0.3141 
     92 H92       -70.7470   24.4488  -75.4791 H         1 UNK         0.0743 
     93 H93       -72.1100   24.8754  -73.4293 H         1 UNK         0.0784 
     94 H94       -73.3960   25.5720  -74.4073 H         1 UNK         0.0784 
     95 H95       -72.9866   23.8667  -74.5688 H         1 UNK         0.0784 
     96 H96       -73.2079   25.1413  -76.8204 H         1 UNK         0.3213 
     97 H97       -71.7646   24.9399  -80.1081 H         1 UNK         0.0855 
     98 H98       -73.6752   23.2269  -78.4320 H         1 UNK         0.0814 
     99 H99       -72.2552   22.6561  -79.2942 H         1 UNK         0.0814 
    100 H100      -73.6257   23.2870  -80.1931 H         1 UNK         0.0814 
    101 H101      -74.2999   25.6513  -78.7179 H         1 UNK         0.3105 
    102 H102      -74.1906   28.9804  -79.7614 H         1 UNK         0.0547 
    103 H103      -75.8457   26.8678  -81.2444 H         1 UNK         0.0837 
    104 H104      -76.2133   28.5909  -81.1415 H         1 UNK         0.0837 
    105 H105      -74.7840   28.0465  -82.0007 H         1 UNK         0.0837 
    106 H106      -76.4033   27.4324  -78.8795 H         1 UNK         0.3020 
    107 H107      -75.7498   27.8665  -75.3714 H         1 UNK         0.1245 
    108 H108      -78.1406   28.5854  -75.7327 H         1 UNK         0.0781 
    109 H109      -77.8294   28.7999  -77.4287 H         1 UNK         0.0781 
    110 H110      -77.8190   32.2074  -74.7465 H         1 UNK         0.0836 
    111 H111      -79.0038   31.1182  -75.4263 H         1 UNK         0.0836 
    112 H112      -77.7791   26.3420  -76.1183 H         1 UNK         0.3022 
    113 H113      -77.9115   24.0897  -77.0038 H         1 UNK         0.0747 
    114 H114      -76.0057   22.7549  -77.8533 H         1 UNK         0.0793 
    115 H115      -76.9418   21.8153  -76.7057 H         1 UNK         0.0793 
    116 H116      -75.3980   22.5158  -76.2197 H         1 UNK         0.0793 
    117 H117      -76.9348   23.1750  -74.4096 H         1 UNK         0.3047 
    118 H118      -78.2684   23.2803  -72.6345 H         1 UNK         0.0822 
    119 H119      -77.0183   25.3746  -72.1847 H         1 UNK         0.0807 
    120 H120      -78.3079   25.2065  -71.0034 H         1 UNK         0.0807 
    121 H121      -78.4790   26.3317  -72.3506 H         1 UNK         0.0807 
    122 H122      -80.6031   25.0018  -72.3208 H         1 UNK         0.2946 
    123 H123      -82.9563   22.7541  -73.5986 H         1 UNK         0.1144 
    124 H124      -82.6086   21.5681  -71.4266 H         1 UNK         0.0793 
    125 H125      -83.9771   22.6633  -71.3278 H         1 UNK         0.0793 
    126 H126      -82.4355   23.1060  -70.5923 H         1 UNK         0.0793 
    127 H127      -83.0999   25.0969  -71.8925 H         1 UNK         0.2896 
@<TRIPOS>BOND
     1    1    2 1    
     2    1   67 1    
     3    1   68 1    
     4    1   69 1    
     5    2    3 2    
     6    2    4 am   BACKBONE|DICT|INTERRES
     7    4    5 1    
     8    4   70 1    
     9    5    6 1    
    10    5   65 1    
    11    5   71 1    
    12    6    7 1    
    13    6   72 1    
    14    6   73 1    
    15    7    8 1    
    16    8    9 1    
    17    8   74 1    
    18    8   75 1    
    19    9   10 ar   
    20    9   14 ar   
    21   10   11 ar   
    22   10   76 1    
    23   11   12 ar   
    24   11   48 1    
    25   12   13 ar   
    26   12   77 1    
    27   13   14 ar   
    28   13   15 1    
    29   14   78 1    
    30   15   16 1    
    31   15   79 1    
    32   15   80 1    
    33   16   17 1    
    34   17   18 1    
    35   17   81 1    
    36   17   82 1    
    37   18   19 1    
    38   18   22 1    
    39   18   83 1    
    40   19   20 am   BACKBONE|DICT|INTERRES
    41   19   21 2    
    42   20   84 1    
    43   20   85 1    
    44   22   23 am   BACKBONE|DICT|INTERRES
    45   22   86 1    
    46   23   24 2    
    47   23   25 1    
    48   25   26 1    
    49   25   27 1    
    50   25   87 1    
    51   26   88 1    
    52   26   89 1    
    53   26   90 1    
    54   27   28 am   BACKBONE|DICT|INTERRES
    55   27   91 1    
    56   28   29 2    
    57   28   30 1    
    58   30   31 1    
    59   30   32 1    
    60   30   92 1    
    61   31   93 1    
    62   31   94 1    
    63   31   95 1    
    64   32   33 am   BACKBONE|DICT|INTERRES
    65   32   96 1    
    66   33   34 2    
    67   33   35 1    
    68   35   36 1    
    69   35   37 1    
    70   35   97 1    
    71   36   98 1    
    72   36   99 1    
    73   36  100 1    
    74   37   38 am   BACKBONE|DICT|INTERRES
    75   37  101 1    
    76   38   39 2    
    77   38   40 1    
    78   40   41 1    
    79   40   42 1    
    80   40  102 1    
    81   41  103 1    
    82   41  104 1    
    83   41  105 1    
    84   42   43 am   BACKBONE|DICT|INTERRES
    85   42  106 1    
    86   43   44 2    
    87   43   45 1    
    88   45   46 1    
    89   45   49 1    
    90   45  107 1    
    91   46   47 1    
    92   46  108 1    
    93   46  109 1    
    94   47   48 1    
    95   48  110 1    
    96   48  111 1    
    97   49   50 am   BACKBONE|DICT|INTERRES
    98   49  112 1    
    99   50   51 2    
   100   50   52 1    
   101   52   53 1    
   102   52   54 1    
   103   52  113 1    
   104   53  114 1    
   105   53  115 1    
   106   53  116 1    
   107   54   55 am   BACKBONE|DICT|INTERRES
   108   54  117 1    
   109   55   56 2    
   110   55   57 1    
   111   57   58 1    
   112   57   59 1    
   113   57  118 1    
   114   58  119 1    
   115   58  120 1    
   116   58  121 1    
   117   59   60 am   BACKBONE|DICT|INTERRES
   118   59  122 1    
   119   60   61 2    
   120   60   62 1    
   121   62   63 1    
   122   62   64 1    
   123   62  123 1    
   124   63  124 1    
   125   63  125 1    
   126   63  126 1    
   127   64   65 am   BACKBONE|DICT|INTERRES
   128   64  127 1    
   129   65   66 2    
@<TRIPOS>SUBSTRUCTURE
     1 UNK         1 GROUP             0       ****    0 ROOT    
