@<TRIPOS>MOLECULE
3R135
127   129    1
SMALL
USER_CHARGES


@<TRIPOS>ATOM
      1 CA        -85.0667   27.7087  -75.2608 C.3       0 UNK        -0.1998 
      2 C         -83.6388   28.2063  -75.4261 C.2       0 UNK         0.4909 
      3 O         -83.0636   28.0699  -76.5065 O.2       0 UNK        -0.5240 
      4 N         -83.0636   28.7871  -74.3657 N.am      1 UNK        -0.4739 
      5 CA        -81.6695   29.2374  -74.3061 C.3       1 UNK         0.0864 
      6 C6        -81.4082   30.1581  -73.0818 C.3       11 UNK        -0.0881 
      7 S7        -81.9504   29.4587  -71.4779 S.3       11 UNK        -0.2682 
      8 C8        -80.4884   29.7014  -70.4129 C.3       11 UNK         0.0289 
      9 C9        -79.2643   28.9153  -70.8697 C.ar      11 UNK        -0.0687 
     10 C10       -79.3231   27.5270  -71.0246 C.ar      11 UNK        -0.0823 
     11 C11       -78.2066   26.7986  -71.4507 C.ar      11 UNK        -0.0830 
     12 C12       -77.0076   27.4835  -71.6972 C.ar      11 UNK        -0.1021 
     13 C13       -76.9305   28.8702  -71.5331 C.ar      11 UNK        -0.0753 
     14 C14       -78.0614   29.5790  -71.1206 C.ar      11 UNK        -0.0933 
     15 C15       -75.6270   29.6121  -71.7867 C.3       11 UNK         0.0166 
     16 S16       -75.6673   30.5064  -73.3713 S.3       11 UNK        -0.2615 
     17 C17       -74.1599   31.5318  -73.2350 C.3       11 UNK        -0.0865 
     18 CA        -73.0725   31.1851  -74.2943 C.3       10 UNK         0.0862 
     19 C         -71.8665   32.1736  -74.2609 C.2       10 UNK         0.5551 
     20 N         -70.6360   31.7314  -74.4955 N.am      10 UNK        -0.7319 
     21 O         -72.0496   33.3699  -74.0475 O.2       10 UNK        -0.5018 
     22 N         -72.6882   29.7645  -74.3061 N.am      10 UNK        -0.4509 
     23 C         -72.1503   29.0730  -73.2910 C.2       10 UNK         0.4899 
     24 O         -71.9467   29.5363  -72.1688 O.2       10 UNK        -0.4839 
     25 CA        -71.7631   27.6102  -73.5712 C.3       9 UNK         0.0222 
     26 CB        -72.8655   26.6695  -73.0626 C.3       9 UNK        -0.1966 
     27 N         -71.5087   27.3447  -74.9908 N.am      9 UNK        -0.4218 
     28 C         -70.4550   27.8260  -75.6710 C.2       9 UNK         0.5020 
     29 O         -69.5548   28.4861  -75.1498 O.2       9 UNK        -0.5274 
     30 CA        -70.3996   27.5678  -77.1897 C.3       8 UNK         0.0270 
     31 CB        -69.5279   26.3382  -77.4923 C.3       8 UNK        -0.1976 
     32 N         -71.7123   27.3920  -77.8160 N.am      8 UNK        -0.4313 
     33 C         -72.7021   28.2960  -77.8195 C.2       8 UNK         0.5041 
     34 O         -72.5989   29.4268  -77.3436 O.2       8 UNK        -0.5577 
     35 CA        -74.0556   27.8459  -78.3989 C.3       7 UNK         0.0284 
     36 CB        -74.1886   28.2971  -79.8620 C.3       7 UNK        -0.1958 
     37 N         -74.3234   26.4024  -78.3079 N.am      7 UNK        -0.4454 
     38 C         -74.3207   25.6796  -77.1787 C.2       7 UNK         0.5089 
     39 O         -73.9771   26.1315  -76.0846 O.2       7 UNK        -0.5125 
     40 CA        -74.7627   24.2136  -77.3168 C.3       6 UNK         0.0408 
     41 CB        -73.6107   23.3121  -77.8045 C.3       6 UNK        -0.1791 
     42 N         -75.3874   23.7227  -76.0833 N.am      6 UNK        -0.4762 
     43 C         -74.8104   23.3630  -74.9244 C.2       6 UNK         0.5007 
     44 O         -73.5983   23.2250  -74.7554 O.2       6 UNK        -0.5032 
     45 CA        -75.7626   23.1258  -73.7331 C.3       5 UNK         0.0783 
     46 C46       -75.9709   24.4589  -72.9738 C.3       11 UNK        -0.0857 
     47 S47       -76.8830   24.2746  -71.4055 S.3       11 UNK        -0.2512 
     48 C48       -78.3703   25.2950  -71.6951 C.3       11 UNK         0.0225 
     49 N         -77.0286   22.5106  -74.1504 N.am      5 UNK        -0.4615 
     50 C         -77.1597   21.2711  -74.6414 C.2       4 UNK         0.5053 
     51 O         -76.2263   20.4717  -74.7149 O.2       4 UNK        -0.5105 
     52 CA        -78.5442   20.8420  -75.1709 C.3       4 UNK         0.0263 
     53 CB        -79.3590   20.1186  -74.0798 C.3       4 UNK        -0.1981 
     54 N         -79.3158   21.9194  -75.8146 N.am      4 UNK        -0.4224 
     55 C         -79.8656   22.9988  -75.2431 C.2       3 UNK         0.4895 
     56 O         -79.8592   23.2140  -74.0301 O.2       3 UNK        -0.5091 
     57 CA        -80.4796   24.0438  -76.1888 C.3       3 UNK         0.0250 
     58 CB        -82.0146   23.9771  -76.1546 C.3       3 UNK        -0.1996 
     59 N         -80.0505   25.3895  -75.8078 N.am      3 UNK        -0.4254 
     60 C         -78.7905   25.8395  -75.8441 C.2       2 UNK         0.5004 
     61 O         -77.8671   25.1827  -76.3277 O.2       2 UNK        -0.5226 
     62 CA        -78.4877   27.2248  -75.2233 C.3       2 UNK         0.0269 
     63 CB        -77.3210   27.9278  -75.9400 C.3       2 UNK        -0.1926 
     64 N         -79.6119   28.1674  -75.1214 N.am      2 UNK        -0.4687 
     65 C         -80.7005   28.0374  -74.3498 C.2       1 UNK         0.5165 
     66 O         -80.9600   27.0210  -73.7023 O.2       1 UNK        -0.5079 
     67 H67       -85.7216   28.2013  -75.9791 H         1 UNK         0.0900 
     68 H68       -85.1113   26.6345  -75.4385 H         1 UNK         0.0900 
     69 H69       -85.4526   27.9035  -74.2603 H         1 UNK         0.0900 
     70 H70       -83.5635   28.8398  -73.4891 H         1 UNK         0.2959 
     71 H71       -81.4920   29.8339  -75.2040 H         1 UNK         0.1079 
     72 H72       -81.9442   31.0980  -73.2218 H         1 UNK         0.0837 
     73 H73       -80.3532   30.4345  -73.0318 H         1 UNK         0.0837 
     74 H74       -80.7417   29.3914  -69.3983 H         1 UNK         0.0685 
     75 H75       -80.2693   30.7690  -70.3603 H         1 UNK         0.0685 
     76 H76       -80.2604   27.0172  -70.8464 H         1 UNK         0.1434 
     77 H77       -76.1293   26.9510  -72.0273 H         1 UNK         0.1329 
     78 H78       -78.0002   30.6518  -70.9982 H         1 UNK         0.1335 
     79 H79       -74.7828   28.9216  -71.7825 H         1 UNK         0.0680 
     80 H80       -75.4543   30.3178  -70.9727 H         1 UNK         0.0680 
     81 H81       -73.7469   31.4627  -72.2277 H         1 UNK         0.1032 
     82 H82       -74.4741   32.5707  -73.3491 H         1 UNK         0.1032 
     83 H83       -73.5252   31.3513  -75.2724 H         1 UNK         0.0461 
     84 H84       -69.8661   32.3813  -74.4818 H         1 UNK         0.3453 
     85 H85       -70.4694   30.7527  -74.6786 H         1 UNK         0.3453 
     86 H86       -72.7671   29.3167  -75.2116 H         1 UNK         0.2984 
     87 H87       -70.8471   27.3939  -73.0175 H         1 UNK         0.0554 
     88 H88       -72.6208   25.6252  -73.2588 H         1 UNK         0.0847 
     89 H89       -73.8240   26.8854  -73.5364 H         1 UNK         0.0847 
     90 H90       -73.0043   26.7761  -71.9860 H         1 UNK         0.0847 
     91 H91       -72.2361   26.8383  -75.4903 H         1 UNK         0.3141 
     92 H92       -69.9333   28.4416  -77.6495 H         1 UNK         0.0743 
     93 H93       -69.9604   25.4253  -77.0805 H         1 UNK         0.0784 
     94 H94       -69.3984   26.1961  -78.5655 H         1 UNK         0.0784 
     95 H95       -68.5321   26.4503  -77.0606 H         1 UNK         0.0784 
     96 H96       -71.9015   26.4902  -78.2279 H         1 UNK         0.3213 
     97 H97       -74.8291   28.3508  -77.8164 H         1 UNK         0.0855 
     98 H98       -75.1869   28.0971  -80.2515 H         1 UNK         0.0814 
     99 H99       -73.4671   27.7944  -80.5073 H         1 UNK         0.0814 
    100 H100      -74.0170   29.3706  -79.9564 H         1 UNK         0.0814 
    101 H101      -74.6086   25.9481  -79.1640 H         1 UNK         0.3105 
    102 H102      -75.5540   24.1798  -78.0674 H         1 UNK         0.0547 
    103 H103      -73.9067   22.2633  -77.8226 H         1 UNK         0.0837 
    104 H104      -72.7247   23.4012  -77.1753 H         1 UNK         0.0837 
    105 H105      -73.3094   23.5805  -78.8175 H         1 UNK         0.0837 
    106 H106      -76.3897   23.8888  -76.0553 H         1 UNK         0.3020 
    107 H107      -75.2618   22.4242  -73.0619 H         1 UNK         0.1245 
    108 H108      -76.4691   25.1881  -73.6153 H         1 UNK         0.0781 
    109 H109      -75.0047   24.8929  -72.7154 H         1 UNK         0.0781 
    110 H110      -79.1548   24.9069  -71.0438 H         1 UNK         0.0836 
    111 H111      -78.7288   25.1424  -72.7123 H         1 UNK         0.0836 
    112 H112      -77.8688   23.0710  -74.0594 H         1 UNK         0.3022 
    113 H113      -78.3537   20.1158  -75.9629 H         1 UNK         0.0747 
    114 H114      -80.3216   19.7792  -74.4622 H         1 UNK         0.0793 
    115 H115      -78.8249   19.2388  -73.7188 H         1 UNK         0.0793 
    116 H116      -79.5460   20.7559  -73.2152 H         1 UNK         0.0793 
    117 H117      -79.3575   21.8575  -76.8231 H         1 UNK         0.3047 
    118 H118      -80.1398   23.8562  -77.2095 H         1 UNK         0.0822 
    119 H119      -82.4587   24.7067  -76.8324 H         1 UNK         0.0807 
    120 H120      -82.4029   24.1719  -75.1537 H         1 UNK         0.0807 
    121 H121      -82.3706   22.9917  -76.4579 H         1 UNK         0.0807 
    122 H122      -80.7123   25.9417  -75.2726 H         1 UNK         0.2946 
    123 H123      -78.1609   27.0220  -74.2047 H         1 UNK         0.1144 
    124 H124      -77.5342   28.0881  -76.9973 H         1 UNK         0.0793 
    125 H125      -76.4097   27.3342  -75.8736 H         1 UNK         0.0793 
    126 H126      -77.0978   28.8943  -75.4890 H         1 UNK         0.0793 
    127 H127      -79.5074   29.0196  -75.6531 H         1 UNK         0.2896 
@<TRIPOS>BOND
     1    1    2 1    
     2    1   67 1    
     3    1   68 1    
     4    1   69 1    
     5    2    3 2    
     6    2    4 am   BACKBONE|DICT|INTERRES
     7    4    5 1    
     8    4   70 1    
     9    5    6 1    
    10    5   65 1    
    11    5   71 1    
    12    6    7 1    
    13    6   72 1    
    14    6   73 1    
    15    7    8 1    
    16    8    9 1    
    17    8   74 1    
    18    8   75 1    
    19    9   10 ar   
    20    9   14 ar   
    21   10   11 ar   
    22   10   76 1    
    23   11   12 ar   
    24   11   48 1    
    25   12   13 ar   
    26   12   77 1    
    27   13   14 ar   
    28   13   15 1    
    29   14   78 1    
    30   15   16 1    
    31   15   79 1    
    32   15   80 1    
    33   16   17 1    
    34   17   18 1    
    35   17   81 1    
    36   17   82 1    
    37   18   19 1    
    38   18   22 1    
    39   18   83 1    
    40   19   20 am   BACKBONE|DICT|INTERRES
    41   19   21 2    
    42   20   84 1    
    43   20   85 1    
    44   22   23 am   BACKBONE|DICT|INTERRES
    45   22   86 1    
    46   23   24 2    
    47   23   25 1    
    48   25   26 1    
    49   25   27 1    
    50   25   87 1    
    51   26   88 1    
    52   26   89 1    
    53   26   90 1    
    54   27   28 am   BACKBONE|DICT|INTERRES
    55   27   91 1    
    56   28   29 2    
    57   28   30 1    
    58   30   31 1    
    59   30   32 1    
    60   30   92 1    
    61   31   93 1    
    62   31   94 1    
    63   31   95 1    
    64   32   33 am   BACKBONE|DICT|INTERRES
    65   32   96 1    
    66   33   34 2    
    67   33   35 1    
    68   35   36 1    
    69   35   37 1    
    70   35   97 1    
    71   36   98 1    
    72   36   99 1    
    73   36  100 1    
    74   37   38 am   BACKBONE|DICT|INTERRES
    75   37  101 1    
    76   38   39 2    
    77   38   40 1    
    78   40   41 1    
    79   40   42 1    
    80   40  102 1    
    81   41  103 1    
    82   41  104 1    
    83   41  105 1    
    84   42   43 am   BACKBONE|DICT|INTERRES
    85   42  106 1    
    86   43   44 2    
    87   43   45 1    
    88   45   46 1    
    89   45   49 1    
    90   45  107 1    
    91   46   47 1    
    92   46  108 1    
    93   46  109 1    
    94   47   48 1    
    95   48  110 1    
    96   48  111 1    
    97   49   50 am   BACKBONE|DICT|INTERRES
    98   49  112 1    
    99   50   51 2    
   100   50   52 1    
   101   52   53 1    
   102   52   54 1    
   103   52  113 1    
   104   53  114 1    
   105   53  115 1    
   106   53  116 1    
   107   54   55 am   BACKBONE|DICT|INTERRES
   108   54  117 1    
   109   55   56 2    
   110   55   57 1    
   111   57   58 1    
   112   57   59 1    
   113   57  118 1    
   114   58  119 1    
   115   58  120 1    
   116   58  121 1    
   117   59   60 am   BACKBONE|DICT|INTERRES
   118   59  122 1    
   119   60   61 2    
   120   60   62 1    
   121   62   63 1    
   122   62   64 1    
   123   62  123 1    
   124   63  124 1    
   125   63  125 1    
   126   63  126 1    
   127   64   65 am   BACKBONE|DICT|INTERRES
   128   64  127 1    
   129   65   66 2    
@<TRIPOS>SUBSTRUCTURE
     1 UNK         1 GROUP             0       ****    0 ROOT    
