@<TRIPOS>MOLECULE
3R135
127   129    1
SMALL
USER_CHARGES


@<TRIPOS>ATOM
      1 CA        -82.5048   27.1278  -69.8134 C.3       0 UNK        -0.1998 
      2 C         -83.1806   26.9326  -71.1624 C.2       0 UNK         0.4909 
      3 O         -84.1614   26.1946  -71.2568 O.2       0 UNK        -0.5240 
      4 N         -82.6613   27.5884  -72.2086 N.am      1 UNK        -0.4739 
      5 CA        -83.1582   27.5017  -73.5886 C.3       1 UNK         0.0864 
      6 C6        -82.7209   28.7329  -74.4272 C.3       11 UNK        -0.0881 
      7 S7        -80.9167   28.8530  -74.6930 S.3       11 UNK        -0.2682 
      8 C8        -80.4088   30.0204  -73.3954 C.3       11 UNK         0.0289 
      9 C9        -78.9933   29.7058  -72.9422 C.ar      11 UNK        -0.0687 
     10 C10       -78.7751   28.7642  -71.9313 C.ar      11 UNK        -0.0823 
     11 C11       -77.4765   28.4343  -71.5344 C.ar      11 UNK        -0.0830 
     12 C12       -76.3942   29.0668  -72.1519 C.ar      11 UNK        -0.1021 
     13 C13       -76.5968   29.9978  -73.1745 C.ar      11 UNK        -0.0753 
     14 C14       -77.9009   30.3224  -73.5589 C.ar      11 UNK        -0.0933 
     15 C15       -75.4078   30.5642  -73.9352 C.3       11 UNK         0.0166 
     16 S16       -74.2440   31.4706  -72.8718 S.3       11 UNK        -0.2615 
     17 C17       -72.8592   31.8427  -74.0158 C.3       11 UNK        -0.0865 
     18 CA        -72.4274   30.7063  -75.0001 C.3       10 UNK         0.0862 
     19 C         -71.2353   31.1298  -75.9110 C.2       10 UNK         0.5551 
     20 N         -70.3477   30.2234  -76.3023 N.am      10 UNK        -0.7319 
     21 O         -71.1252   32.2925  -76.2932 O.2       10 UNK        -0.5018 
     22 N         -72.2611   29.3927  -74.3499 N.am      10 UNK        -0.4509 
     23 C         -71.4131   29.1086  -73.3530 C.2       10 UNK         0.4899 
     24 O         -70.6248   29.9164  -72.8610 O.2       10 UNK        -0.4839 
     25 CA        -71.4455   27.6749  -72.8077 C.3       9 UNK         0.0222 
     26 CB        -72.4473   27.5547  -71.6491 C.3       9 UNK        -0.1966 
     27 N         -71.7710   26.6878  -73.8410 N.am      9 UNK        -0.4218 
     28 C         -70.8479   26.1038  -74.6162 C.2       9 UNK         0.5020 
     29 O         -69.6517   26.3990  -74.5977 O.2       9 UNK        -0.5274 
     30 CA        -71.3180   24.9670  -75.5336 C.3       8 UNK         0.0270 
     31 CB        -71.5737   23.6904  -74.7150 C.3       8 UNK        -0.1976 
     32 N         -72.4990   25.2926  -76.3367 N.am      8 UNK        -0.4313 
     33 C         -72.4690   26.0957  -77.4101 C.2       8 UNK         0.5041 
     34 O         -71.4827   26.7536  -77.7443 O.2       8 UNK        -0.5577 
     35 CA        -73.7276   26.1358  -78.2934 C.3       7 UNK         0.0284 
     36 CB        -73.9120   24.8064  -79.0447 C.3       7 UNK        -0.1958 
     37 N         -74.9406   26.4425  -77.5412 N.am      7 UNK        -0.4454 
     38 C         -75.2407   27.6500  -77.0456 C.2       7 UNK         0.5089 
     39 O         -74.5523   28.6572  -77.2114 O.2       7 UNK        -0.5125 
     40 CA        -76.5136   27.7385  -76.1867 C.3       6 UNK         0.0408 
     41 CB        -77.7658   27.8411  -77.0690 C.3       6 UNK        -0.1791 
     42 N         -76.6522   26.6264  -75.2425 N.am      6 UNK        -0.4762 
     43 C         -75.7328   26.2616  -74.3330 C.2       6 UNK         0.5007 
     44 O         -74.6476   26.8255  -74.1748 O.2       6 UNK        -0.5032 
     45 CA        -76.0448   24.9922  -73.5194 C.3       5 UNK         0.0783 
     46 C46       -76.9964   25.2706  -72.3285 C.3       11 UNK        -0.0857 
     47 S47       -76.1195   26.0513  -70.9300 S.3       11 UNK        -0.2512 
     48 C48       -77.2518   27.3968  -70.4395 C.3       11 UNK         0.0225 
     49 N         -76.5422   23.9218  -74.3890 N.am      5 UNK        -0.4615 
     50 C         -75.8038   23.3056  -75.3239 C.2       4 UNK         0.5053 
     51 O         -74.6177   23.5530  -75.5332 O.2       4 UNK        -0.5105 
     52 CA        -76.5195   22.2728  -76.2080 C.3       4 UNK         0.0263 
     53 CB        -76.6771   20.9359  -75.4665 C.3       4 UNK        -0.1981 
     54 N         -77.8271   22.7434  -76.6662 N.am      4 UNK        -0.4224 
     55 C         -78.0125   23.8020  -77.4684 C.2       3 UNK         0.4895 
     56 O         -77.0950   24.4547  -77.9657 O.2       3 UNK        -0.5091 
     57 CA        -79.4681   24.2278  -77.7271 C.3       3 UNK         0.0250 
     58 CB        -80.0267   23.5080  -78.9647 C.3       3 UNK        -0.1996 
     59 N         -80.3625   24.0070  -76.5841 N.am      3 UNK        -0.4254 
     60 C         -80.2182   24.5770  -75.3796 C.2       2 UNK         0.5004 
     61 O         -79.2835   25.3229  -75.0763 O.2       2 UNK        -0.5226 
     62 CA        -81.2623   24.2148  -74.3157 C.3       2 UNK         0.0269 
     63 CB        -80.6264   23.3663  -73.2019 C.3       2 UNK        -0.1926 
     64 N         -81.8155   25.4339  -73.7333 N.am      2 UNK        -0.4687 
     65 C         -82.7952   26.1665  -74.2822 C.2       1 UNK         0.5165 
     66 O         -83.4061   25.8283  -75.2977 O.2       1 UNK        -0.5079 
     67 H67       -82.0918   26.1830  -69.4609 H         1 UNK         0.0900 
     68 H68       -83.2296   27.4778  -69.0787 H         1 UNK         0.0900 
     69 H69       -81.6957   27.8562  -69.8618 H         1 UNK         0.0900 
     70 H70       -81.8575   28.1829  -72.0781 H         1 UNK         0.2959 
     71 H71       -84.2497   27.5212  -73.5409 H         1 UNK         0.1079 
     72 H72       -83.2004   28.7021  -75.4075 H         1 UNK         0.0837 
     73 H73       -83.0820   29.6510  -73.9610 H         1 UNK         0.0837 
     74 H74       -80.4734   31.0391  -73.7808 H         1 UNK         0.0685 
     75 H75       -81.0882   29.9706  -72.5440 H         1 UNK         0.0685 
     76 H76       -79.6176   28.2764  -71.4630 H         1 UNK         0.1434 
     77 H77       -75.3875   28.8090  -71.8605 H         1 UNK         0.1329 
     78 H78       -78.0679   31.0254  -74.3634 H         1 UNK         0.1335 
     79 H79       -74.8968   29.7189  -74.3907 H         1 UNK         0.0680 
     80 H80       -75.7315   31.2144  -74.7494 H         1 UNK         0.0680 
     81 H81       -72.0073   32.1496  -73.4068 H         1 UNK         0.1032 
     82 H82       -73.1429   32.7305  -74.5838 H         1 UNK         0.1032 
     83 H83       -73.2437   30.5705  -75.7086 H         1 UNK         0.0461 
     84 H84       -69.5858   30.5016  -76.9001 H         1 UNK         0.3453 
     85 H85       -70.4416   29.2617  -76.0154 H         1 UNK         0.3453 
     86 H86       -72.8609   28.6548  -74.6920 H         1 UNK         0.2984 
     87 H87       -70.4551   27.4575  -72.4013 H         1 UNK         0.0554 
     88 H88       -72.4049   26.5679  -71.1880 H         1 UNK         0.0847 
     89 H89       -73.4692   27.7199  -71.9841 H         1 UNK         0.0847 
     90 H90       -72.2366   28.2879  -70.8695 H         1 UNK         0.0847 
     91 H91       -72.7537   26.4555  -73.9621 H         1 UNK         0.3141 
     92 H92       -70.5003   24.7495  -76.2246 H         1 UNK         0.0743 
     93 H93       -72.3872   23.8225  -74.0005 H         1 UNK         0.0784 
     94 H94       -71.8295   22.8499  -75.3606 H         1 UNK         0.0784 
     95 H95       -70.6861   23.4050  -74.1486 H         1 UNK         0.0784 
     96 H96       -73.3495   24.7739  -76.1223 H         1 UNK         0.3213 
     97 H97       -73.5838   26.9224  -79.0376 H         1 UNK         0.0855 
     98 H98       -73.0184   24.5525  -79.6164 H         1 UNK         0.0814 
     99 H99       -74.7425   24.8633  -79.7487 H         1 UNK         0.0814 
    100 H100      -74.1122   23.9783  -78.3635 H         1 UNK         0.0814 
    101 H101      -75.6020   25.6840  -77.4020 H         1 UNK         0.3105 
    102 H102      -76.4616   28.6513  -75.5998 H         1 UNK         0.0547 
    103 H103      -78.6747   27.8733  -76.4685 H         1 UNK         0.0837 
    104 H104      -77.8467   27.0016  -77.7575 H         1 UNK         0.0837 
    105 H105      -77.7408   28.7504  -77.6704 H         1 UNK         0.0837 
    106 H106      -77.5285   26.1100  -75.2732 H         1 UNK         0.3020 
    107 H107      -75.0940   24.6379  -73.1133 H         1 UNK         0.1245 
    108 H108      -77.4076   24.3325  -71.9530 H         1 UNK         0.0781 
    109 H109      -77.8548   25.8707  -72.6370 H         1 UNK         0.0781 
    110 H110      -76.8379   27.8991  -69.5643 H         1 UNK         0.0836 
    111 H111      -78.1971   26.9553  -70.1201 H         1 UNK         0.0836 
    112 H112      -77.5289   23.7182  -74.3342 H         1 UNK         0.3022 
    113 H113      -75.8970   22.1036  -77.0894 H         1 UNK         0.0747 
    114 H114      -77.1070   20.1718  -76.1144 H         1 UNK         0.0793 
    115 H115      -75.7093   20.5630  -75.1277 H         1 UNK         0.0793 
    116 H116      -77.3160   21.0296  -74.5875 H         1 UNK         0.0793 
    117 H117      -78.6405   22.2597  -76.3155 H         1 UNK         0.3047 
    118 H118      -79.4639   25.2995  -77.9323 H         1 UNK         0.0822 
    119 H119      -81.0218   23.8724  -79.2209 H         1 UNK         0.0807 
    120 H120      -80.0914   22.4299  -78.8126 H         1 UNK         0.0807 
    121 H121      -79.3893   23.6767  -79.8341 H         1 UNK         0.0807 
    122 H122      -81.1578   23.4059  -76.7469 H         1 UNK         0.2946 
    123 H123      -82.0686   23.6369  -74.7737 H         1 UNK         0.1144 
    124 H124      -80.2032   22.4448  -73.6038 H         1 UNK         0.0793 
    125 H125      -81.3652   23.0820  -72.4523 H         1 UNK         0.0793 
    126 H126      -79.8239   23.9007  -72.6923 H         1 UNK         0.0793 
    127 H127      -81.3352   25.8128  -72.9312 H         1 UNK         0.2896 
@<TRIPOS>BOND
     1    1    2 1    
     2    1   67 1    
     3    1   68 1    
     4    1   69 1    
     5    2    3 2    
     6    2    4 am   BACKBONE|DICT|INTERRES
     7    4    5 1    
     8    4   70 1    
     9    5    6 1    
    10    5   65 1    
    11    5   71 1    
    12    6    7 1    
    13    6   72 1    
    14    6   73 1    
    15    7    8 1    
    16    8    9 1    
    17    8   74 1    
    18    8   75 1    
    19    9   10 ar   
    20    9   14 ar   
    21   10   11 ar   
    22   10   76 1    
    23   11   12 ar   
    24   11   48 1    
    25   12   13 ar   
    26   12   77 1    
    27   13   14 ar   
    28   13   15 1    
    29   14   78 1    
    30   15   16 1    
    31   15   79 1    
    32   15   80 1    
    33   16   17 1    
    34   17   18 1    
    35   17   81 1    
    36   17   82 1    
    37   18   19 1    
    38   18   22 1    
    39   18   83 1    
    40   19   20 am   BACKBONE|DICT|INTERRES
    41   19   21 2    
    42   20   84 1    
    43   20   85 1    
    44   22   23 am   BACKBONE|DICT|INTERRES
    45   22   86 1    
    46   23   24 2    
    47   23   25 1    
    48   25   26 1    
    49   25   27 1    
    50   25   87 1    
    51   26   88 1    
    52   26   89 1    
    53   26   90 1    
    54   27   28 am   BACKBONE|DICT|INTERRES
    55   27   91 1    
    56   28   29 2    
    57   28   30 1    
    58   30   31 1    
    59   30   32 1    
    60   30   92 1    
    61   31   93 1    
    62   31   94 1    
    63   31   95 1    
    64   32   33 am   BACKBONE|DICT|INTERRES
    65   32   96 1    
    66   33   34 2    
    67   33   35 1    
    68   35   36 1    
    69   35   37 1    
    70   35   97 1    
    71   36   98 1    
    72   36   99 1    
    73   36  100 1    
    74   37   38 am   BACKBONE|DICT|INTERRES
    75   37  101 1    
    76   38   39 2    
    77   38   40 1    
    78   40   41 1    
    79   40   42 1    
    80   40  102 1    
    81   41  103 1    
    82   41  104 1    
    83   41  105 1    
    84   42   43 am   BACKBONE|DICT|INTERRES
    85   42  106 1    
    86   43   44 2    
    87   43   45 1    
    88   45   46 1    
    89   45   49 1    
    90   45  107 1    
    91   46   47 1    
    92   46  108 1    
    93   46  109 1    
    94   47   48 1    
    95   48  110 1    
    96   48  111 1    
    97   49   50 am   BACKBONE|DICT|INTERRES
    98   49  112 1    
    99   50   51 2    
   100   50   52 1    
   101   52   53 1    
   102   52   54 1    
   103   52  113 1    
   104   53  114 1    
   105   53  115 1    
   106   53  116 1    
   107   54   55 am   BACKBONE|DICT|INTERRES
   108   54  117 1    
   109   55   56 2    
   110   55   57 1    
   111   57   58 1    
   112   57   59 1    
   113   57  118 1    
   114   58  119 1    
   115   58  120 1    
   116   58  121 1    
   117   59   60 am   BACKBONE|DICT|INTERRES
   118   59  122 1    
   119   60   61 2    
   120   60   62 1    
   121   62   63 1    
   122   62   64 1    
   123   62  123 1    
   124   63  124 1    
   125   63  125 1    
   126   63  126 1    
   127   64   65 am   BACKBONE|DICT|INTERRES
   128   64  127 1    
   129   65   66 2    
@<TRIPOS>SUBSTRUCTURE
     1 UNK         1 GROUP             0       ****    0 ROOT    
