@<TRIPOS>MOLECULE
3R135
127   129    1
SMALL
USER_CHARGES


@<TRIPOS>ATOM
      1 CA        -77.9435   29.5254  -74.6531 C.3       0 UNK        -0.1998 
      2 C         -79.2331   30.3323  -74.7665 C.2       0 UNK         0.4909 
      3 O         -79.1993   31.4563  -75.2644 O.2       0 UNK        -0.5240 
      4 N         -80.3852   29.8208  -74.3122 N.am      1 UNK        -0.4739 
      5 CA        -80.6080   28.4846  -73.7399 C.3       1 UNK         0.0864 
      6 C6        -81.9191   28.4261  -72.9087 C.3       11 UNK        -0.0881 
      7 S7        -82.0659   29.7545  -71.6638 S.3       11 UNK        -0.2682 
      8 C8        -81.2811   29.0073  -70.1979 C.3       11 UNK         0.0289 
      9 C9        -79.7648   28.9300  -70.3257 C.ar      11 UNK        -0.0687 
     10 C10       -79.1104   27.6963  -70.2663 C.ar      11 UNK        -0.0823 
     11 C11       -77.7181   27.6284  -70.3735 C.ar      11 UNK        -0.0830 
     12 C12       -76.9806   28.8065  -70.5239 C.ar      11 UNK        -0.1021 
     13 C13       -77.6189   30.0518  -70.5968 C.ar      11 UNK        -0.0753 
     14 C14       -79.0123   30.0980  -70.4885 C.ar      11 UNK        -0.0933 
     15 C15       -76.8692   31.3753  -70.7869 C.3       11 UNK         0.0166 
     16 S16       -75.0524   31.2747  -70.9715 S.3       11 UNK        -0.2615 
     17 C17       -74.9005   30.5599  -72.6440 C.3       11 UNK        -0.0865 
     18 CA        -73.5160   29.9196  -72.9145 C.3       10 UNK         0.0862 
     19 C         -73.2678   28.6452  -72.0689 C.2       10 UNK         0.5551 
     20 N         -72.3113   28.6779  -71.1491 N.am      10 UNK        -0.7319 
     21 O         -73.9530   27.6368  -72.2252 O.2       10 UNK        -0.5018 
     22 N         -73.3892   29.5704  -74.3296 N.am      10 UNK        -0.4509 
     23 C         -72.6777   30.2358  -75.2447 C.2       10 UNK         0.4899 
     24 O         -72.0791   31.2894  -75.0207 O.2       10 UNK        -0.4839 
     25 CA        -72.6305   29.5972  -76.6467 C.3       9 UNK         0.0222 
     26 CB        -71.6343   30.2872  -77.6027 C.3       9 UNK        -0.1966 
     27 N         -72.3922   28.1506  -76.5835 N.am      9 UNK        -0.4218 
     28 C         -71.3185   27.5137  -76.0900 C.2       9 UNK         0.5020 
     29 O         -70.3055   28.0814  -75.6791 O.2       9 UNK        -0.5274 
     30 CA        -71.3874   25.9761  -76.0139 C.3       8 UNK         0.0270 
     31 CB        -71.6627   25.5336  -74.5669 C.3       8 UNK        -0.1976 
     32 N         -72.4023   25.3851  -76.8907 N.am      8 UNK        -0.4313 
     33 C         -72.3302   25.3304  -78.2280 C.2       8 UNK         0.5041 
     34 O         -71.3585   25.7143  -78.8798 O.2       8 UNK        -0.5577 
     35 CA        -73.5696   24.7897  -78.9616 C.3       7 UNK         0.0284 
     36 CB        -73.5739   23.2522  -78.9800 C.3       7 UNK        -0.1958 
     37 N         -74.8172   25.2838  -78.3716 N.am      7 UNK        -0.4454 
     38 C         -75.2429   26.5533  -78.4513 C.2       7 UNK         0.5089 
     39 O         -74.6626   27.4339  -79.0849 O.2       7 UNK        -0.5125 
     40 CA        -76.5056   26.9123  -77.6526 C.3       6 UNK         0.0408 
     41 CB        -77.7735   26.6318  -78.4735 C.3       6 UNK        -0.1791 
     42 N         -76.5702   26.1942  -76.3788 N.am      6 UNK        -0.4762 
     43 C         -75.8065   26.4868  -75.3140 C.2       6 UNK         0.5007 
     44 O         -74.9934   27.4096  -75.2956 O.2       6 UNK        -0.5032 
     45 CA        -75.9763   25.5972  -74.0656 C.3       5 UNK         0.0783 
     46 C46       -77.0879   26.1939  -73.1730 C.3       11 UNK        -0.0857 
     47 S47       -77.4924   25.1880  -71.7055 S.3       11 UNK        -0.2512 
     48 C48       -76.9999   26.2843  -70.3345 C.3       11 UNK         0.0225 
     49 N         -76.2278   24.1946  -74.4077 N.am      5 UNK        -0.4615 
     50 C         -75.4111   23.4143  -75.1269 C.2       4 UNK         0.5053 
     51 O         -74.3218   23.7840  -75.5622 O.2       4 UNK        -0.5105 
     52 CA        -75.9160   22.0031  -75.4684 C.3       4 UNK         0.0263 
     53 CB        -75.3712   20.9833  -74.4566 C.3       4 UNK        -0.1981 
     54 N         -77.3784   21.8905  -75.5383 N.am      4 UNK        -0.4224 
     55 C         -78.1691   22.5758  -76.3792 C.2       3 UNK         0.4895 
     56 O         -77.7631   23.4387  -77.1577 O.2       3 UNK        -0.5091 
     57 CA        -79.6740   22.2962  -76.2816 C.3       3 UNK         0.0250 
     58 CB        -80.0012   20.8537  -76.7039 C.3       3 UNK        -0.1996 
     59 N         -80.1486   22.5315  -74.9141 N.am      3 UNK        -0.4254 
     60 C         -80.5465   23.6933  -74.3742 C.2       2 UNK         0.5004 
     61 O         -80.8102   23.7856  -73.1742 O.2       2 UNK        -0.5226 
     62 CA        -80.7360   24.9364  -75.2632 C.3       2 UNK         0.0269 
     63 CB        -82.0976   24.8707  -75.9900 C.3       2 UNK        -0.1926 
     64 N         -80.6837   26.1231  -74.4101 N.am      2 UNK        -0.4687 
     65 C         -80.6064   27.3898  -74.8329 C.2       1 UNK         0.5165 
     66 O         -80.5451   27.6984  -76.0252 O.2       1 UNK        -0.5079 
     67 H67       -77.7742   29.2156  -73.6232 H         1 UNK         0.0900 
     68 H68       -77.0878   30.1240  -74.9656 H         1 UNK         0.0900 
     69 H69       -77.9804   28.6445  -75.2929 H         1 UNK         0.0900 
     70 H70       -81.2200   30.3816  -74.4001 H         1 UNK         0.2959 
     71 H71       -79.7814   28.2599  -73.0653 H         1 UNK         0.1079 
     72 H72       -82.7863   28.5043  -73.5676 H         1 UNK         0.0837 
     73 H73       -82.0180   27.4654  -72.3999 H         1 UNK         0.0837 
     74 H74       -81.5256   29.6147  -69.3253 H         1 UNK         0.0685 
     75 H75       -81.7146   28.0228  -70.0154 H         1 UNK         0.0685 
     76 H76       -79.6805   26.7852  -70.1440 H         1 UNK         0.1434 
     77 H77       -75.9053   28.7370  -70.5927 H         1 UNK         0.1329 
     78 H78       -79.5206   31.0518  -70.5363 H         1 UNK         0.1335 
     79 H79       -77.0787   32.0112  -69.9252 H         1 UNK         0.0680 
     80 H80       -77.2769   31.8935  -71.6569 H         1 UNK         0.0680 
     81 H81       -75.0836   31.3621  -73.3607 H         1 UNK         0.1032 
     82 H82       -75.6884   29.8257  -72.8069 H         1 UNK         0.1032 
     83 H83       -72.7481   30.6523  -72.6572 H         1 UNK         0.0461 
     84 H84       -71.7551   29.5070  -71.0028 H         1 UNK         0.3453 
     85 H85       -72.1473   27.8586  -70.5861 H         1 UNK         0.3453 
     86 H86       -73.8528   28.7048  -74.6027 H         1 UNK         0.2984 
     87 H87       -73.6288   29.7181  -77.0701 H         1 UNK         0.0554 
     88 H88       -71.6398   29.8168  -78.5861 H         1 UNK         0.0847 
     89 H89       -70.6136   30.2550  -77.2205 H         1 UNK         0.0847 
     90 H90       -71.8939   31.3369  -77.7443 H         1 UNK         0.0847 
     91 H91       -73.1827   27.5766  -76.8444 H         1 UNK         0.3141 
     92 H92       -70.4119   25.5877  -76.3138 H         1 UNK         0.0743 
     93 H93       -72.6268   25.8998  -74.2117 H         1 UNK         0.0784 
     94 H94       -71.6630   24.4471  -74.4758 H         1 UNK         0.0784 
     95 H95       -70.9000   25.9165  -73.8875 H         1 UNK         0.0784 
     96 H96       -73.2031   24.9529  -76.4316 H         1 UNK         0.3213 
     97 H97       -73.5229   25.1403  -79.9952 H         1 UNK         0.0855 
     98 H98       -73.6096   22.8308  -77.9753 H         1 UNK         0.0814 
     99 H99       -72.6726   22.8686  -79.4600 H         1 UNK         0.0814 
    100 H100      -74.4268   22.8642  -79.5373 H         1 UNK         0.0814 
    101 H101      -75.3550   24.6327  -77.8167 H         1 UNK         0.3105 
    102 H102      -76.4744   27.9836  -77.4411 H         1 UNK         0.0547 
    103 H103      -77.7695   27.2060  -79.4008 H         1 UNK         0.0837 
    104 H104      -77.8599   25.5794  -78.7448 H         1 UNK         0.0837 
    105 H105      -78.6724   26.9121  -77.9244 H         1 UNK         0.0837 
    106 H106      -77.1669   25.3760  -76.3493 H         1 UNK         0.3020 
    107 H107      -75.0350   25.6287  -73.5133 H         1 UNK         0.1245 
    108 H108      -78.0101   26.3150  -73.7404 H         1 UNK         0.0781 
    109 H109      -76.7924   27.1946  -72.8574 H         1 UNK         0.0781 
    110 H110      -75.9171   26.4183  -70.3676 H         1 UNK         0.0836 
    111 H111      -77.2191   25.7892  -69.3876 H         1 UNK         0.0836 
    112 H112      -77.0861   23.7986  -74.0549 H         1 UNK         0.3022 
    113 H113      -75.5216   21.7507  -76.4550 H         1 UNK         0.0747 
    114 H114      -75.6358   19.9637  -74.7374 H         1 UNK         0.0793 
    115 H115      -74.2822   21.0296  -74.4042 H         1 UNK         0.0793 
    116 H116      -75.7536   21.1666  -73.4515 H         1 UNK         0.0793 
    117 H117      -77.8038   21.2150  -74.9205 H         1 UNK         0.3047 
    118 H118      -80.1808   22.9543  -76.9878 H         1 UNK         0.0822 
    119 H119      -81.0781   20.6841  -76.7174 H         1 UNK         0.0807 
    120 H120      -79.5581   20.1137  -76.0364 H         1 UNK         0.0807 
    121 H121      -79.6316   20.6482  -77.7098 H         1 UNK         0.0807 
    122 H122      -80.0980   21.7362  -74.2943 H         1 UNK         0.2946 
    123 H123      -79.9222   25.0038  -75.9873 H         1 UNK         0.1144 
    124 H124      -82.9281   24.9192  -75.2845 H         1 UNK         0.0793 
    125 H125      -82.2122   23.9454  -76.5547 H         1 UNK         0.0793 
    126 H126      -82.2154   25.6901  -76.6989 H         1 UNK         0.0793 
    127 H127      -80.7190   25.9057  -73.4204 H         1 UNK         0.2896 
@<TRIPOS>BOND
     1    1    2 1    
     2    1   67 1    
     3    1   68 1    
     4    1   69 1    
     5    2    3 2    
     6    2    4 am   BACKBONE|DICT|INTERRES
     7    4    5 1    
     8    4   70 1    
     9    5    6 1    
    10    5   65 1    
    11    5   71 1    
    12    6    7 1    
    13    6   72 1    
    14    6   73 1    
    15    7    8 1    
    16    8    9 1    
    17    8   74 1    
    18    8   75 1    
    19    9   10 ar   
    20    9   14 ar   
    21   10   11 ar   
    22   10   76 1    
    23   11   12 ar   
    24   11   48 1    
    25   12   13 ar   
    26   12   77 1    
    27   13   14 ar   
    28   13   15 1    
    29   14   78 1    
    30   15   16 1    
    31   15   79 1    
    32   15   80 1    
    33   16   17 1    
    34   17   18 1    
    35   17   81 1    
    36   17   82 1    
    37   18   19 1    
    38   18   22 1    
    39   18   83 1    
    40   19   20 am   BACKBONE|DICT|INTERRES
    41   19   21 2    
    42   20   84 1    
    43   20   85 1    
    44   22   23 am   BACKBONE|DICT|INTERRES
    45   22   86 1    
    46   23   24 2    
    47   23   25 1    
    48   25   26 1    
    49   25   27 1    
    50   25   87 1    
    51   26   88 1    
    52   26   89 1    
    53   26   90 1    
    54   27   28 am   BACKBONE|DICT|INTERRES
    55   27   91 1    
    56   28   29 2    
    57   28   30 1    
    58   30   31 1    
    59   30   32 1    
    60   30   92 1    
    61   31   93 1    
    62   31   94 1    
    63   31   95 1    
    64   32   33 am   BACKBONE|DICT|INTERRES
    65   32   96 1    
    66   33   34 2    
    67   33   35 1    
    68   35   36 1    
    69   35   37 1    
    70   35   97 1    
    71   36   98 1    
    72   36   99 1    
    73   36  100 1    
    74   37   38 am   BACKBONE|DICT|INTERRES
    75   37  101 1    
    76   38   39 2    
    77   38   40 1    
    78   40   41 1    
    79   40   42 1    
    80   40  102 1    
    81   41  103 1    
    82   41  104 1    
    83   41  105 1    
    84   42   43 am   BACKBONE|DICT|INTERRES
    85   42  106 1    
    86   43   44 2    
    87   43   45 1    
    88   45   46 1    
    89   45   49 1    
    90   45  107 1    
    91   46   47 1    
    92   46  108 1    
    93   46  109 1    
    94   47   48 1    
    95   48  110 1    
    96   48  111 1    
    97   49   50 am   BACKBONE|DICT|INTERRES
    98   49  112 1    
    99   50   51 2    
   100   50   52 1    
   101   52   53 1    
   102   52   54 1    
   103   52  113 1    
   104   53  114 1    
   105   53  115 1    
   106   53  116 1    
   107   54   55 am   BACKBONE|DICT|INTERRES
   108   54  117 1    
   109   55   56 2    
   110   55   57 1    
   111   57   58 1    
   112   57   59 1    
   113   57  118 1    
   114   58  119 1    
   115   58  120 1    
   116   58  121 1    
   117   59   60 am   BACKBONE|DICT|INTERRES
   118   59  122 1    
   119   60   61 2    
   120   60   62 1    
   121   62   63 1    
   122   62   64 1    
   123   62  123 1    
   124   63  124 1    
   125   63  125 1    
   126   63  126 1    
   127   64   65 am   BACKBONE|DICT|INTERRES
   128   64  127 1    
   129   65   66 2    
@<TRIPOS>SUBSTRUCTURE
     1 UNK         1 GROUP             0       ****    0 ROOT    
