@<TRIPOS>MOLECULE
3R135
127   129    1
SMALL
USER_CHARGES


@<TRIPOS>ATOM
      1 CA        -81.3755   22.1152  -71.7104 C.3       0 UNK        -0.1998 
      2 C         -81.1250   23.5035  -72.2785 C.2       0 UNK         0.4909 
      3 O         -80.1083   23.7020  -72.9415 O.2       0 UNK        -0.5240 
      4 N         -82.0576   24.4374  -72.0297 N.am      1 UNK        -0.4739 
      5 CA        -82.0737   25.8603  -72.4143 C.3       1 UNK         0.0864 
      6 C6        -81.5484   26.8175  -71.3081 C.3       11 UNK        -0.0881 
      7 S7        -79.8299   26.5573  -70.7468 S.3       11 UNK        -0.2682 
      8 C8        -79.4292   28.2087  -70.0900 C.3       11 UNK         0.0289 
      9 C9        -78.5557   29.0310  -71.0319 C.ar      11 UNK        -0.0687 
     10 C10       -79.0726   29.5585  -72.2209 C.ar      11 UNK        -0.0823 
     11 C11       -78.2863   30.3782  -73.0402 C.ar      11 UNK        -0.0830 
     12 C12       -76.9654   30.6533  -72.6686 C.ar      11 UNK        -0.1021 
     13 C13       -76.4335   30.1277  -71.4862 C.ar      11 UNK        -0.0753 
     14 C14       -77.2356   29.3199  -70.6745 C.ar      11 UNK        -0.0933 
     15 C15       -75.0122   30.4718  -71.0569 C.3       11 UNK         0.0166 
     16 S16       -73.9849   28.9842  -70.8566 S.3       11 UNK        -0.2615 
     17 C17       -72.3500   29.7188  -70.4859 C.3       11 UNK        -0.0865 
     18 CA        -71.5246   30.0734  -71.7591 C.3       10 UNK         0.0862 
     19 C         -70.1312   30.6864  -71.4271 C.2       10 UNK         0.5551 
     20 N         -69.1018   30.4549  -72.2322 N.am      10 UNK        -0.7319 
     21 O         -69.9861   31.4095  -70.4442 O.2       10 UNK        -0.5018 
     22 N         -71.5206   28.9869  -72.7515 N.am      10 UNK        -0.4509 
     23 C         -71.0094   27.7615  -72.6114 C.2       10 UNK         0.4899 
     24 O         -70.2774   27.4275  -71.6792 O.2       10 UNK        -0.4839 
     25 CA        -71.4101   26.6994  -73.6565 C.3       9 UNK         0.0222 
     26 CB        -72.6487   25.9295  -73.1613 C.3       9 UNK        -0.1966 
     27 N         -71.6185   27.1451  -75.0458 N.am      9 UNK        -0.4218 
     28 C         -72.4569   28.0601  -75.5578 C.2       9 UNK         0.5020 
     29 O         -73.1627   28.8198  -74.8946 O.2       9 UNK        -0.5274 
     30 CA        -72.5346   28.1319  -77.0890 C.3       8 UNK         0.0270 
     31 CB        -71.1800   28.4733  -77.7450 C.3       8 UNK        -0.1976 
     32 N         -73.1541   26.9279  -77.6505 N.am      8 UNK        -0.4313 
     33 C         -72.6727   25.6759  -77.6929 C.2       8 UNK         0.5041 
     34 O         -71.5268   25.3798  -77.3465 O.2       8 UNK        -0.5577 
     35 CA        -73.6207   24.5526  -78.1661 C.3       7 UNK         0.0284 
     36 CB        -73.6522   23.3979  -77.1491 C.3       7 UNK        -0.1958 
     37 N         -74.9947   25.0084  -78.3951 N.am      7 UNK        -0.4454 
     38 C         -75.4334   25.6193  -79.5031 C.2       7 UNK         0.5089 
     39 O         -74.7412   25.7992  -80.5050 O.2       7 UNK        -0.5125 
     40 CA        -76.8717   26.1673  -79.4688 C.3       6 UNK         0.0408 
     41 CB        -77.8604   25.1065  -79.9760 C.3       6 UNK        -0.1791 
     42 N         -77.2847   26.6354  -78.1394 N.am      6 UNK        -0.4762 
     43 C         -76.7208   27.6590  -77.4771 C.2       6 UNK         0.5007 
     44 O         -75.8122   28.3441  -77.9468 O.2       6 UNK        -0.5032 
     45 CA        -77.2037   27.9235  -76.0343 C.3       5 UNK         0.0783 
     46 C46       -78.4696   28.8155  -75.9948 C.3       11 UNK        -0.0857 
     47 S47       -78.0459   30.5798  -75.8353 S.3       11 UNK        -0.2512 
     48 C48       -78.8904   31.0304  -74.2815 C.3       11 UNK         0.0225 
     49 N         -77.3828   26.6829  -75.2778 N.am      5 UNK        -0.4615 
     50 C         -76.3776   25.8640  -74.9391 C.2       4 UNK         0.5053 
     51 O         -75.2029   26.0597  -75.2393 O.2       4 UNK        -0.5105 
     52 CA        -76.7492   24.5851  -74.1782 C.3       4 UNK         0.0263 
     53 CB        -76.9650   24.8884  -72.6890 C.3       4 UNK        -0.1981 
     54 N         -77.9382   23.9400  -74.7354 N.am      4 UNK        -0.4224 
     55 C         -78.0001   23.4158  -75.9678 C.2       3 UNK         0.4895 
     56 O         -77.0493   23.3803  -76.7496 O.2       3 UNK        -0.5091 
     57 CA        -79.3638   22.8748  -76.4196 C.3       3 UNK         0.0250 
     58 CB        -79.6441   21.4983  -75.7950 C.3       3 UNK        -0.1996 
     59 N         -80.4666   23.7903  -76.1189 N.am      3 UNK        -0.4254 
     60 C         -80.6181   25.0083  -76.6582 C.2       2 UNK         0.5004 
     61 O         -79.8189   25.5189  -77.4406 O.2       2 UNK        -0.5226 
     62 CA        -81.8720   25.7958  -76.2531 C.3       2 UNK         0.0269 
     63 CB        -83.0658   25.4040  -77.1385 C.3       2 UNK        -0.1926 
     64 N         -82.2250   25.6152  -74.8437 N.am      2 UNK        -0.4687 
     65 C         -81.5333   26.1560  -73.8311 C.2       1 UNK         0.5165 
     66 O         -80.5236   26.8419  -73.9932 O.2       1 UNK        -0.5079 
     67 H67       -81.4318   21.3849  -72.5171 H         1 UNK         0.0900 
     68 H68       -80.5570   21.8304  -71.0499 H         1 UNK         0.0900 
     69 H69       -82.3035   22.0657  -71.1412 H         1 UNK         0.0900 
     70 H70       -82.8629   24.1529  -71.4899 H         1 UNK         0.2959 
     71 H71       -83.1366   26.0958  -72.4961 H         1 UNK         0.1079 
     72 H72       -81.6675   27.8511  -71.6359 H         1 UNK         0.0837 
     73 H73       -82.1861   26.7236  -70.4279 H         1 UNK         0.0837 
     74 H74       -80.3421   28.7611  -69.8637 H         1 UNK         0.0685 
     75 H75       -78.9246   28.0725  -69.1322 H         1 UNK         0.0685 
     76 H76       -80.0963   29.3486  -72.4960 H         1 UNK         0.1434 
     77 H77       -76.3599   31.2956  -73.2937 H         1 UNK         0.1329 
     78 H78       -76.8297   28.9282  -69.7518 H         1 UNK         0.1335 
     79 H79       -75.0453   31.0187  -70.1136 H         1 UNK         0.0680 
     80 H80       -74.5405   31.1316  -71.7865 H         1 UNK         0.0680 
     81 H81       -72.4928   30.6026  -69.8614 H         1 UNK         0.1032 
     82 H82       -71.7969   29.0064  -69.8714 H         1 UNK         0.1032 
     83 H83       -72.0563   30.8853  -72.2559 H         1 UNK         0.0461 
     84 H84       -68.2037   30.8607  -72.0218 H         1 UNK         0.3453 
     85 H85       -69.2162   29.8619  -73.0387 H         1 UNK         0.3453 
     86 H86       -72.1485   29.1196  -73.5442 H         1 UNK         0.2984 
     87 H87       -70.5821   25.9907  -73.7049 H         1 UNK         0.0554 
     88 H88       -72.4814   25.5088  -72.1690 H         1 UNK         0.0847 
     89 H89       -72.8976   25.1041  -73.8284 H         1 UNK         0.0847 
     90 H90       -73.5229   26.5790  -73.0950 H         1 UNK         0.0847 
     91 H91       -71.1571   26.5674  -75.7433 H         1 UNK         0.3141 
     92 H92       -73.2170   28.9489  -77.3288 H         1 UNK         0.0743 
     93 H93       -70.7965   29.4206  -77.3640 H         1 UNK         0.0784 
     94 H94       -70.4164   27.7191  -77.5555 H         1 UNK         0.0784 
     95 H95       -71.2826   28.5774  -78.8251 H         1 UNK         0.0784 
     96 H96       -74.1266   27.0558  -77.9068 H         1 UNK         0.3213 
     97 H97       -73.2165   24.1669  -79.1043 H         1 UNK         0.0855 
     98 H98       -74.0116   23.7316  -76.1750 H         1 UNK         0.0814 
     99 H99       -72.6583   22.9733  -77.0025 H         1 UNK         0.0814 
    100 H100      -74.3021   22.5898  -77.4855 H         1 UNK         0.0814 
    101 H101      -75.6482   24.8703  -77.6318 H         1 UNK         0.3105 
    102 H102      -76.9143   27.0219  -80.1470 H         1 UNK         0.0547 
    103 H103      -78.8692   25.5115  -80.0562 H         1 UNK         0.0837 
    104 H104      -77.5766   24.7472  -80.9660 H         1 UNK         0.0837 
    105 H105      -77.8992   24.2420  -79.3122 H         1 UNK         0.0837 
    106 H106      -78.0698   26.1455  -77.7132 H         1 UNK         0.3020 
    107 H107      -76.3905   28.4535  -75.5301 H         1 UNK         0.1245 
    108 H108      -79.0907   28.5510  -75.1409 H         1 UNK         0.0781 
    109 H109      -79.1072   28.6692  -76.8692 H         1 UNK         0.0781 
    110 H110      -79.9504   30.7879  -74.3731 H         1 UNK         0.0836 
    111 H111      -78.8397   32.1136  -74.1627 H         1 UNK         0.0836 
    112 H112      -78.3250   26.4540  -74.9882 H         1 UNK         0.3022 
    113 H113      -75.9151   23.8859  -74.2678 H         1 UNK         0.0747 
    114 H114      -77.1909   23.9833  -72.1253 H         1 UNK         0.0793 
    115 H115      -76.0745   25.3383  -72.2476 H         1 UNK         0.0793 
    116 H116      -77.7893   25.5865  -72.5444 H         1 UNK         0.0793 
    117 H117      -78.7694   23.9150  -74.1436 H         1 UNK         0.3047 
    118 H118      -79.3240   22.7527  -77.5043 H         1 UNK         0.0822 
    119 H119      -78.8423   20.7957  -76.0267 H         1 UNK         0.0807 
    120 H120      -80.5699   21.0693  -76.1786 H         1 UNK         0.0807 
    121 H121      -79.7242   21.5537  -74.7087 H         1 UNK         0.0807 
    122 H122      -81.1435   23.4823  -75.4367 H         1 UNK         0.2946 
    123 H123      -81.6578   26.8544  -76.4209 H         1 UNK         0.1144 
    124 H124      -83.9406   26.0163  -76.9186 H         1 UNK         0.0793 
    125 H125      -83.3450   24.3580  -77.0053 H         1 UNK         0.0793 
    126 H126      -82.8303   25.5463  -78.1943 H         1 UNK         0.0793 
    127 H127      -83.0359   25.0491  -74.6380 H         1 UNK         0.2896 
@<TRIPOS>BOND
     1    1    2 1    
     2    1   67 1    
     3    1   68 1    
     4    1   69 1    
     5    2    3 2    
     6    2    4 am   BACKBONE|DICT|INTERRES
     7    4    5 1    
     8    4   70 1    
     9    5    6 1    
    10    5   65 1    
    11    5   71 1    
    12    6    7 1    
    13    6   72 1    
    14    6   73 1    
    15    7    8 1    
    16    8    9 1    
    17    8   74 1    
    18    8   75 1    
    19    9   10 ar   
    20    9   14 ar   
    21   10   11 ar   
    22   10   76 1    
    23   11   12 ar   
    24   11   48 1    
    25   12   13 ar   
    26   12   77 1    
    27   13   14 ar   
    28   13   15 1    
    29   14   78 1    
    30   15   16 1    
    31   15   79 1    
    32   15   80 1    
    33   16   17 1    
    34   17   18 1    
    35   17   81 1    
    36   17   82 1    
    37   18   19 1    
    38   18   22 1    
    39   18   83 1    
    40   19   20 am   BACKBONE|DICT|INTERRES
    41   19   21 2    
    42   20   84 1    
    43   20   85 1    
    44   22   23 am   BACKBONE|DICT|INTERRES
    45   22   86 1    
    46   23   24 2    
    47   23   25 1    
    48   25   26 1    
    49   25   27 1    
    50   25   87 1    
    51   26   88 1    
    52   26   89 1    
    53   26   90 1    
    54   27   28 am   BACKBONE|DICT|INTERRES
    55   27   91 1    
    56   28   29 2    
    57   28   30 1    
    58   30   31 1    
    59   30   32 1    
    60   30   92 1    
    61   31   93 1    
    62   31   94 1    
    63   31   95 1    
    64   32   33 am   BACKBONE|DICT|INTERRES
    65   32   96 1    
    66   33   34 2    
    67   33   35 1    
    68   35   36 1    
    69   35   37 1    
    70   35   97 1    
    71   36   98 1    
    72   36   99 1    
    73   36  100 1    
    74   37   38 am   BACKBONE|DICT|INTERRES
    75   37  101 1    
    76   38   39 2    
    77   38   40 1    
    78   40   41 1    
    79   40   42 1    
    80   40  102 1    
    81   41  103 1    
    82   41  104 1    
    83   41  105 1    
    84   42   43 am   BACKBONE|DICT|INTERRES
    85   42  106 1    
    86   43   44 2    
    87   43   45 1    
    88   45   46 1    
    89   45   49 1    
    90   45  107 1    
    91   46   47 1    
    92   46  108 1    
    93   46  109 1    
    94   47   48 1    
    95   48  110 1    
    96   48  111 1    
    97   49   50 am   BACKBONE|DICT|INTERRES
    98   49  112 1    
    99   50   51 2    
   100   50   52 1    
   101   52   53 1    
   102   52   54 1    
   103   52  113 1    
   104   53  114 1    
   105   53  115 1    
   106   53  116 1    
   107   54   55 am   BACKBONE|DICT|INTERRES
   108   54  117 1    
   109   55   56 2    
   110   55   57 1    
   111   57   58 1    
   112   57   59 1    
   113   57  118 1    
   114   58  119 1    
   115   58  120 1    
   116   58  121 1    
   117   59   60 am   BACKBONE|DICT|INTERRES
   118   59  122 1    
   119   60   61 2    
   120   60   62 1    
   121   62   63 1    
   122   62   64 1    
   123   62  123 1    
   124   63  124 1    
   125   63  125 1    
   126   63  126 1    
   127   64   65 am   BACKBONE|DICT|INTERRES
   128   64  127 1    
   129   65   66 2    
@<TRIPOS>SUBSTRUCTURE
     1 UNK         1 GROUP             0       ****    0 ROOT    
