@<TRIPOS>MOLECULE
3R135
127   129    1
SMALL
USER_CHARGES


@<TRIPOS>ATOM
      1 CA        -84.4166   30.6186  -73.2708 C.3       0 UNK        -0.1998 
      2 C         -83.9878   29.7510  -72.0905 C.2       0 UNK         0.4909 
      3 O         -84.6433   29.7792  -71.0510 O.2       0 UNK        -0.5240 
      4 N         -82.9033   28.9686  -72.1912 N.am      1 UNK        -0.4739 
      5 CA        -82.0407   28.7851  -73.3680 C.3       1 UNK         0.0864 
      6 C6        -80.6346   28.2780  -72.9592 C.3       11 UNK        -0.0881 
      7 S7        -80.6408   26.6837  -72.0615 S.3       11 UNK        -0.2682 
      8 C8        -79.3173   26.9374  -70.8384 C.3       11 UNK         0.0289 
      9 C9        -77.9248   26.7642  -71.4342 C.ar      11 UNK        -0.0687 
     10 C10       -77.2235   25.5680  -71.2481 C.ar      11 UNK        -0.0823 
     11 C11       -75.9097   25.4324  -71.7098 C.ar      11 UNK        -0.0830 
     12 C12       -75.3059   26.4986  -72.3837 C.ar      11 UNK        -0.1021 
     13 C13       -76.0075   27.6849  -72.6073 C.ar      11 UNK        -0.0753 
     14 C14       -77.3124   27.8157  -72.1234 C.ar      11 UNK        -0.0933 
     15 C15       -75.3460   28.8336  -73.3510 C.3       11 UNK         0.0166 
     16 S16       -75.2763   28.4984  -75.1359 S.3       11 UNK        -0.2615 
     17 C17       -74.9229   30.1656  -75.7885 C.3       11 UNK        -0.0865 
     18 CA        -73.6011   30.2433  -76.6095 C.3       10 UNK         0.0862 
     19 C         -73.4230   31.6007  -77.3608 C.2       10 UNK         0.5551 
     20 N         -74.4685   32.1150  -77.9958 N.am      10 UNK        -0.7319 
     21 O         -72.3385   32.1785  -77.4208 O.2       10 UNK        -0.5018 
     22 N         -72.4036   29.8400  -75.8480 N.am      10 UNK        -0.4509 
     23 C         -71.8967   30.4770  -74.7828 C.2       10 UNK         0.4899 
     24 O         -72.4737   31.3916  -74.1908 O.2       10 UNK        -0.4839 
     25 CA        -70.4828   30.0512  -74.3365 C.3       9 UNK         0.0222 
     26 CB        -70.0231   30.7544  -73.0403 C.3       9 UNK        -0.1966 
     27 N         -70.2978   28.6001  -74.2287 N.am      9 UNK        -0.4218 
     28 C         -70.9325   27.7505  -73.4097 C.2       9 UNK         0.5020 
     29 O         -71.8464   28.0711  -72.6495 O.2       9 UNK        -0.5274 
     30 CA        -70.4402   26.2903  -73.4500 C.3       8 UNK         0.0270 
     31 CB        -71.1448   25.3886  -72.4201 C.3       8 UNK        -0.1976 
     32 N         -70.5901   25.7098  -74.7858 N.am      8 UNK        -0.4313 
     33 C         -69.7440   25.9007  -75.8064 C.2       8 UNK         0.5041 
     34 O         -68.7251   26.5889  -75.7259 O.2       8 UNK        -0.5577 
     35 CA        -70.1241   25.2574  -77.1492 C.3       7 UNK         0.0284 
     36 CB        -69.6619   23.7925  -77.2007 C.3       7 UNK        -0.1958 
     37 N         -71.5612   25.3277  -77.4245 N.am      7 UNK        -0.4454 
     38 C         -72.2493   26.4559  -77.6369 C.2       7 UNK         0.5089 
     39 O         -71.7413   27.5774  -77.6213 O.2       7 UNK        -0.5125 
     40 CA        -73.7600   26.3153  -77.8924 C.3       6 UNK         0.0408 
     41 CB        -74.0462   25.7507  -79.2972 C.3       6 UNK        -0.1791 
     42 N         -74.4791   25.5748  -76.8470 N.am      6 UNK        -0.4762 
     43 C         -74.4048   24.2736  -76.5252 C.2       6 UNK         0.5007 
     44 O         -73.6553   23.4730  -77.0863 O.2       6 UNK        -0.5032 
     45 CA        -75.2917   23.7825  -75.3625 C.3       5 UNK         0.0783 
     46 C46       -74.4284   23.5192  -74.1063 C.3       11 UNK        -0.0857 
     47 S47       -75.4006   22.8776  -72.7011 S.3       11 UNK        -0.2512 
     48 C48       -75.1303   24.1542  -71.4305 C.3       11 UNK         0.0225 
     49 N         -76.4141   24.6886  -75.0881 N.am      5 UNK        -0.4615 
     50 C         -77.5202   24.7507  -75.8368 C.2       4 UNK         0.5053 
     51 O         -77.6918   24.0948  -76.8670 O.2       4 UNK        -0.5105 
     52 CA        -78.6176   25.7179  -75.3661 C.3       4 UNK         0.0263 
     53 CB        -78.6983   26.9248  -76.3166 C.3       4 UNK        -0.1981 
     54 N         -79.9292   25.0686  -75.3055 N.am      4 UNK        -0.4224 
     55 C         -80.2372   23.9999  -74.5543 C.2       3 UNK         0.4895 
     56 O         -79.4504   23.4480  -73.7834 O.2       3 UNK        -0.5091 
     57 CA        -81.6829   23.4921  -74.6673 C.3       3 UNK         0.0250 
     58 CB        -82.0225   22.3964  -73.6382 C.3       3 UNK        -0.1996 
     59 N         -82.6028   24.6146  -74.4959 N.am      3 UNK        -0.4254 
     60 C         -83.6119   24.9308  -75.3165 C.2       2 UNK         0.5004 
     61 O         -83.9139   24.2784  -76.3163 O.2       2 UNK        -0.5226 
     62 CA        -84.4257   26.1920  -74.9706 C.3       2 UNK         0.0269 
     63 CB        -85.7644   25.8072  -74.3199 C.3       2 UNK        -0.1926 
     64 N         -83.7177   27.1248  -74.0871 N.am      2 UNK        -0.4687 
     65 C         -82.6728   27.8830  -74.4515 C.2       1 UNK         0.5165 
     66 O         -82.2052   27.8875  -75.5902 O.2       1 UNK        -0.5079 
     67 H67       -85.2954   31.2078  -73.0093 H         1 UNK         0.0900 
     68 H68       -84.6763   30.0086  -74.1351 H         1 UNK         0.0900 
     69 H69       -83.6272   31.3150  -73.5515 H         1 UNK         0.0900 
     70 H70       -82.6394   28.4106  -71.3908 H         1 UNK         0.2959 
     71 H71       -81.8945   29.7591  -73.8386 H         1 UNK         0.1079 
     72 H72       -79.9844   28.1846  -73.8292 H         1 UNK         0.0837 
     73 H73       -80.1682   29.0373  -72.3305 H         1 UNK         0.0837 
     74 H74       -79.4631   26.2232  -70.0266 H         1 UNK         0.0685 
     75 H75       -79.4121   27.9248  -70.3842 H         1 UNK         0.0685 
     76 H76       -77.6905   24.7497  -70.7168 H         1 UNK         0.1434 
     77 H77       -74.2856   26.4211  -72.7311 H         1 UNK         0.1329 
     78 H78       -77.8445   28.7445  -72.2699 H         1 UNK         0.1335 
     79 H79       -75.8962   29.7588  -73.1734 H         1 UNK         0.0680 
     80 H80       -74.3362   28.9964  -72.9724 H         1 UNK         0.0680 
     81 H81       -74.9114   30.8974  -74.9799 H         1 UNK         0.1032 
     82 H82       -75.7796   30.4317  -76.4081 H         1 UNK         0.1032 
     83 H83       -73.6754   29.5111  -77.4117 H         1 UNK         0.0461 
     84 H84       -74.3532   32.9825  -78.4966 H         1 UNK         0.3453 
     85 H85       -75.3629   31.6516  -78.0032 H         1 UNK         0.3453 
     86 H86       -71.8653   29.0974  -76.2812 H         1 UNK         0.2984 
     87 H87       -69.8121   30.3765  -75.1331 H         1 UNK         0.0554 
     88 H88       -69.0045   30.4726  -72.7741 H         1 UNK         0.0847 
     89 H89       -70.6703   30.5114  -72.1968 H         1 UNK         0.0847 
     90 H90       -70.0368   31.8387  -73.1573 H         1 UNK         0.0847 
     91 H91       -69.5901   28.1939  -74.8353 H         1 UNK         0.3141 
     92 H92       -69.3791   26.3050  -73.1909 H         1 UNK         0.0743 
     93 H93       -72.2186   25.3499  -72.5861 H         1 UNK         0.0784 
     94 H94       -70.7605   24.3689  -72.4525 H         1 UNK         0.0784 
     95 H95       -70.9881   25.7607  -71.4067 H         1 UNK         0.0784 
     96 H96       -71.4229   25.1673  -74.9570 H         1 UNK         0.3213 
     97 H97       -69.6054   25.8084  -77.9369 H         1 UNK         0.0855 
     98 H98       -70.1717   23.1792  -76.4565 H         1 UNK         0.0814 
     99 H99       -68.5905   23.7146  -77.0102 H         1 UNK         0.0814 
    100 H100      -69.8478   23.3529  -78.1809 H         1 UNK         0.0814 
    101 H101      -72.0881   24.4572  -77.4294 H         1 UNK         0.3105 
    102 H102      -74.1790   27.3209  -77.8674 H         1 UNK         0.0547 
    103 H103      -73.5883   26.3748  -80.0657 H         1 UNK         0.0837 
    104 H104      -73.6539   24.7419  -79.4265 H         1 UNK         0.0837 
    105 H105      -75.1167   25.7211  -79.5000 H         1 UNK         0.0837 
    106 H106      -75.0966   26.1438  -76.2824 H         1 UNK         0.3020 
    107 H107      -75.7088   22.8237  -75.6806 H         1 UNK         0.1245 
    108 H108      -73.9024   24.4252  -73.8116 H         1 UNK         0.0781 
    109 H109      -73.6532   22.7824  -74.3269 H         1 UNK         0.0781 
    110 H110      -74.0641   24.3647  -71.3385 H         1 UNK         0.0836 
    111 H111      -75.4344   23.7484  -70.4644 H         1 UNK         0.0836 
    112 H112      -76.3616   25.2241  -74.2315 H         1 UNK         0.3022 
    113 H113      -78.3776   26.0747  -74.3624 H         1 UNK         0.0747 
    114 H114      -79.4594   27.6381  -76.0041 H         1 UNK         0.0793 
    115 H115      -77.7498   27.4599  -76.3518 H         1 UNK         0.0793 
    116 H116      -78.9335   26.6176  -77.3365 H         1 UNK         0.0793 
    117 H117      -80.6464   25.4534  -75.9032 H         1 UNK         0.3047 
    118 H118      -81.7830   23.0643  -75.6671 H         1 UNK         0.0822 
    119 H119      -81.3678   21.5319  -73.7558 H         1 UNK         0.0807 
    120 H120      -83.0472   22.0446  -73.7588 H         1 UNK         0.0807 
    121 H121      -81.9097   22.7571  -72.6150 H         1 UNK         0.0807 
    122 H122      -82.4095   25.2287  -73.7159 H         1 UNK         0.2946 
    123 H123      -84.6358   26.7058  -75.9118 H         1 UNK         0.1144 
    124 H124      -86.3342   25.1371  -74.9654 H         1 UNK         0.0793 
    125 H125      -86.3853   26.6850  -74.1396 H         1 UNK         0.0793 
    126 H126      -85.6186   25.2960  -73.3675 H         1 UNK         0.0793 
    127 H127      -84.0332   27.1796  -73.1287 H         1 UNK         0.2896 
@<TRIPOS>BOND
     1    1    2 1    
     2    1   67 1    
     3    1   68 1    
     4    1   69 1    
     5    2    3 2    
     6    2    4 am   BACKBONE|DICT|INTERRES
     7    4    5 1    
     8    4   70 1    
     9    5    6 1    
    10    5   65 1    
    11    5   71 1    
    12    6    7 1    
    13    6   72 1    
    14    6   73 1    
    15    7    8 1    
    16    8    9 1    
    17    8   74 1    
    18    8   75 1    
    19    9   10 ar   
    20    9   14 ar   
    21   10   11 ar   
    22   10   76 1    
    23   11   12 ar   
    24   11   48 1    
    25   12   13 ar   
    26   12   77 1    
    27   13   14 ar   
    28   13   15 1    
    29   14   78 1    
    30   15   16 1    
    31   15   79 1    
    32   15   80 1    
    33   16   17 1    
    34   17   18 1    
    35   17   81 1    
    36   17   82 1    
    37   18   19 1    
    38   18   22 1    
    39   18   83 1    
    40   19   20 am   BACKBONE|DICT|INTERRES
    41   19   21 2    
    42   20   84 1    
    43   20   85 1    
    44   22   23 am   BACKBONE|DICT|INTERRES
    45   22   86 1    
    46   23   24 2    
    47   23   25 1    
    48   25   26 1    
    49   25   27 1    
    50   25   87 1    
    51   26   88 1    
    52   26   89 1    
    53   26   90 1    
    54   27   28 am   BACKBONE|DICT|INTERRES
    55   27   91 1    
    56   28   29 2    
    57   28   30 1    
    58   30   31 1    
    59   30   32 1    
    60   30   92 1    
    61   31   93 1    
    62   31   94 1    
    63   31   95 1    
    64   32   33 am   BACKBONE|DICT|INTERRES
    65   32   96 1    
    66   33   34 2    
    67   33   35 1    
    68   35   36 1    
    69   35   37 1    
    70   35   97 1    
    71   36   98 1    
    72   36   99 1    
    73   36  100 1    
    74   37   38 am   BACKBONE|DICT|INTERRES
    75   37  101 1    
    76   38   39 2    
    77   38   40 1    
    78   40   41 1    
    79   40   42 1    
    80   40  102 1    
    81   41  103 1    
    82   41  104 1    
    83   41  105 1    
    84   42   43 am   BACKBONE|DICT|INTERRES
    85   42  106 1    
    86   43   44 2    
    87   43   45 1    
    88   45   46 1    
    89   45   49 1    
    90   45  107 1    
    91   46   47 1    
    92   46  108 1    
    93   46  109 1    
    94   47   48 1    
    95   48  110 1    
    96   48  111 1    
    97   49   50 am   BACKBONE|DICT|INTERRES
    98   49  112 1    
    99   50   51 2    
   100   50   52 1    
   101   52   53 1    
   102   52   54 1    
   103   52  113 1    
   104   53  114 1    
   105   53  115 1    
   106   53  116 1    
   107   54   55 am   BACKBONE|DICT|INTERRES
   108   54  117 1    
   109   55   56 2    
   110   55   57 1    
   111   57   58 1    
   112   57   59 1    
   113   57  118 1    
   114   58  119 1    
   115   58  120 1    
   116   58  121 1    
   117   59   60 am   BACKBONE|DICT|INTERRES
   118   59  122 1    
   119   60   61 2    
   120   60   62 1    
   121   62   63 1    
   122   62   64 1    
   123   62  123 1    
   124   63  124 1    
   125   63  125 1    
   126   63  126 1    
   127   64   65 am   BACKBONE|DICT|INTERRES
   128   64  127 1    
   129   65   66 2    
@<TRIPOS>SUBSTRUCTURE
     1 UNK         1 GROUP             0       ****    0 ROOT    
