@<TRIPOS>MOLECULE
3R135
127   129    1
SMALL
USER_CHARGES


@<TRIPOS>ATOM
      1 CA        -84.1631   28.8273  -78.3838 C.3       0 UNK        -0.1998 
      2 C         -82.8546   28.4634  -77.6982 C.2       0 UNK         0.4909 
      3 O         -82.0993   27.6408  -78.2174 O.2       0 UNK        -0.5240 
      4 N         -82.5762   29.0745  -76.5394 N.am      1 UNK        -0.4739 
      5 CA        -81.3980   28.7954  -75.7134 C.3       1 UNK         0.0864 
      6 C6        -81.1497   29.9403  -74.6994 C.3       11 UNK        -0.0881 
      7 S7        -79.4062   30.0199  -74.1774 S.3       11 UNK        -0.2682 
      8 C8        -79.5352   29.7853  -72.3787 C.3       11 UNK         0.0289 
      9 C9        -78.2762   29.1443  -71.8138 C.ar      11 UNK        -0.0687 
     10 C10       -78.3227   27.8416  -71.3141 C.ar      11 UNK        -0.0823 
     11 C11       -77.1760   27.2366  -70.7953 C.ar      11 UNK        -0.0830 
     12 C12       -75.9825   27.9638  -70.7452 C.ar      11 UNK        -0.1021 
     13 C13       -75.9012   29.2538  -71.2884 C.ar      11 UNK        -0.0753 
     14 C14       -77.0633   29.8401  -71.8028 C.ar      11 UNK        -0.0933 
     15 C15       -74.5895   30.0391  -71.4031 C.3       11 UNK         0.0166 
     16 S16       -73.1105   29.3110  -70.6137 S.3       11 UNK        -0.2615 
     17 C17       -72.7771   27.8433  -71.6496 C.3       11 UNK        -0.0865 
     18 CA        -71.5638   28.0244  -72.5981 C.3       10 UNK         0.0862 
     19 C         -70.7570   26.7009  -72.7324 C.2       10 UNK         0.5551 
     20 N         -71.0796   25.8290  -73.6785 N.am      10 UNK        -0.7319 
     21 O         -69.8235   26.4680  -71.9684 O.2       10 UNK        -0.5018 
     22 N         -71.9736   28.5993  -73.8904 N.am      10 UNK        -0.4509 
     23 C         -71.1173   29.0820  -74.8027 C.2       10 UNK         0.4899 
     24 O         -69.9001   29.1548  -74.6283 O.2       10 UNK        -0.4839 
     25 CA        -71.6996   29.5751  -76.1409 C.3       9 UNK         0.0222 
     26 CB        -71.5893   28.4685  -77.2007 C.3       9 UNK        -0.1966 
     27 N         -73.0920   30.0198  -76.0546 N.am      9 UNK        -0.4218 
     28 C         -73.5209   31.0832  -75.3592 C.2       9 UNK         0.5020 
     29 O         -72.7637   31.8532  -74.7664 O.2       9 UNK        -0.5274 
     30 CA        -75.0396   31.3549  -75.3056 C.3       8 UNK         0.0270 
     31 CB        -75.3738   32.6994  -75.9746 C.3       8 UNK        -0.1976 
     32 N         -75.8961   30.3182  -75.8910 N.am      8 UNK        -0.4313 
     33 C         -76.0072   29.0485  -75.4793 C.2       8 UNK         0.5041 
     34 O         -75.3214   28.5636  -74.5780 O.2       8 UNK        -0.5577 
     35 CA        -77.0485   28.1689  -76.2018 C.3       7 UNK         0.0284 
     36 CB        -77.7209   28.8318  -77.4265 C.3       7 UNK        -0.1958 
     37 N         -76.5068   26.8614  -76.5657 N.am      7 UNK        -0.4454 
     38 C         -75.4237   26.6010  -77.3125 C.2       7 UNK         0.5089 
     39 O         -74.7631   27.4612  -77.8989 O.2       7 UNK        -0.5125 
     40 CA        -75.0163   25.1137  -77.3828 C.3       6 UNK         0.0408 
     41 CB        -73.6003   24.8884  -77.9527 C.3       6 UNK        -0.1791 
     42 N         -75.1841   24.4461  -76.0851 N.am      6 UNK        -0.4762 
     43 C         -74.5934   24.7858  -74.9264 C.2       6 UNK         0.5007 
     44 O         -73.6659   25.5929  -74.8474 O.2       6 UNK        -0.5032 
     45 CA        -75.1440   24.1587  -73.6279 C.3       5 UNK         0.0783 
     46 C46       -75.8069   25.2435  -72.7450 C.3       11 UNK        -0.0857 
     47 S47       -75.8967   24.7335  -70.9945 S.3       11 UNK        -0.2512 
     48 C48       -77.2326   25.7868  -70.3206 C.3       11 UNK         0.0225 
     49 N         -76.0921   23.0773  -73.9033 N.am      5 UNK        -0.4615 
     50 C         -75.7731   21.7844  -74.0246 C.2       4 UNK         0.5053 
     51 O         -74.6360   21.3391  -73.8706 O.2       4 UNK        -0.5105 
     52 CA        -76.9199   20.8251  -74.3937 C.3       4 UNK         0.0263 
     53 CB        -77.5321   20.2110  -73.1243 C.3       4 UNK        -0.1981 
     54 N         -77.9819   21.4585  -75.1850 N.am      4 UNK        -0.4224 
     55 C         -77.8282   21.9243  -76.4333 C.2       3 UNK         0.4895 
     56 O         -76.7722   21.8639  -77.0621 O.2       3 UNK        -0.5091 
     57 CA        -79.0434   22.6117  -77.0766 C.3       3 UNK         0.0250 
     58 CB        -79.9294   21.5795  -77.7923 C.3       3 UNK        -0.1996 
     59 N         -79.8575   23.3896  -76.1356 N.am      3 UNK        -0.4254 
     60 C         -79.4302   24.4752  -75.4774 C.2       2 UNK         0.5004 
     61 O         -78.2723   24.8994  -75.5238 O.2       2 UNK        -0.5226 
     62 CA        -80.4583   25.2187  -74.6222 C.3       2 UNK         0.0269 
     63 CB        -80.1089   25.1208  -73.1286 C.3       2 UNK        -0.1926 
     64 N         -80.4674   26.6138  -75.0546 N.am      2 UNK        -0.4687 
     65 C         -81.5384   27.4155  -75.0322 C.2       1 UNK         0.5165 
     66 O         -82.6142   27.1022  -74.5152 O.2       1 UNK        -0.5079 
     67 H67       -84.7892   27.9419  -78.4904 H         1 UNK         0.0900 
     68 H68       -83.9669   29.2280  -79.3780 H         1 UNK         0.0900 
     69 H69       -84.7242   29.5739  -77.8221 H         1 UNK         0.0900 
     70 H70       -83.2494   29.7150  -76.1433 H         1 UNK         0.2959 
     71 H71       -80.5461   28.7533  -76.3954 H         1 UNK         0.1079 
     72 H72       -81.3707   30.9028  -75.1641 H         1 UNK         0.0837 
     73 H73       -81.8206   29.8691  -73.8411 H         1 UNK         0.0837 
     74 H74       -79.7053   30.7505  -71.8999 H         1 UNK         0.0685 
     75 H75       -80.4041   29.1669  -72.1487 H         1 UNK         0.0685 
     76 H76       -79.2550   27.2957  -71.3372 H         1 UNK         0.1434 
     77 H77       -75.1105   27.4844  -70.3280 H         1 UNK         0.1329 
     78 H78       -77.0210   30.8353  -72.2239 H         1 UNK         0.1335 
     79 H79       -74.7397   31.0315  -70.9760 H         1 UNK         0.0680 
     80 H80       -74.3644   30.1886  -72.4590 H         1 UNK         0.0680 
     81 H81       -73.6615   27.5833  -72.2285 H         1 UNK         0.1032 
     82 H82       -72.6263   27.0126  -70.9566 H         1 UNK         0.1032 
     83 H83       -70.8786   28.7390  -72.1370 H         1 UNK         0.0461 
     84 H84       -70.5465   24.9795  -73.7665 H         1 UNK         0.3453 
     85 H85       -71.9130   25.9628  -74.2448 H         1 UNK         0.3453 
     86 H86       -72.9585   28.5493  -74.1209 H         1 UNK         0.2984 
     87 H87       -71.0992   30.4256  -76.4700 H         1 UNK         0.0554 
     88 H88       -71.9521   28.8050  -78.1720 H         1 UNK         0.0847 
     89 H89       -72.1643   27.5874  -76.9147 H         1 UNK         0.0847 
     90 H90       -70.5533   28.1528  -77.3315 H         1 UNK         0.0847 
     91 H91       -73.7857   29.4230  -76.4865 H         1 UNK         0.3141 
     92 H92       -75.3071   31.4307  -74.2505 H         1 UNK         0.0743 
     93 H93       -75.1491   32.6850  -77.0419 H         1 UNK         0.0784 
     94 H94       -76.4274   32.9531  -75.8542 H         1 UNK         0.0784 
     95 H95       -74.7975   33.5132  -75.5319 H         1 UNK         0.0784 
     96 H96       -76.4851   30.6116  -76.6566 H         1 UNK         0.3213 
     97 H97       -77.8200   27.9655  -75.4602 H         1 UNK         0.0855 
     98 H98       -78.2537   29.7420  -77.1486 H         1 UNK         0.0814 
     99 H99       -78.4554   28.1634  -77.8764 H         1 UNK         0.0814 
    100 H100      -76.9976   29.0880  -78.2019 H         1 UNK         0.0814 
    101 H101      -76.9714   26.0685  -76.1265 H         1 UNK         0.3105 
    102 H102      -75.7241   24.6379  -78.0631 H         1 UNK         0.0547 
    103 H103      -73.5094   25.3149  -78.9522 H         1 UNK         0.0837 
    104 H104      -73.3727   23.8257  -78.0324 H         1 UNK         0.0837 
    105 H105      -72.8312   25.3484  -77.3334 H         1 UNK         0.0837 
    106 H106      -75.9139   23.7457  -76.0527 H         1 UNK         0.3020 
    107 H107      -74.2752   23.7607  -73.0979 H         1 UNK         0.1245 
    108 H108      -76.8026   25.4899  -73.1156 H         1 UNK         0.0781 
    109 H109      -75.2480   26.1771  -72.7814 H         1 UNK         0.0781 
    110 H110      -77.1793   25.7690  -69.2314 H         1 UNK         0.0836 
    111 H111      -78.1879   25.3324  -70.5868 H         1 UNK         0.0836 
    112 H112      -77.0486   23.3595  -74.0640 H         1 UNK         0.3022 
    113 H113      -76.4916   20.0186  -74.9929 H         1 UNK         0.0747 
    114 H114      -78.2915   19.4678  -73.3683 H         1 UNK         0.0793 
    115 H115      -76.7694   19.7079  -72.5280 H         1 UNK         0.0793 
    116 H116      -77.9932   20.9691  -72.4898 H         1 UNK         0.0793 
    117 H117      -78.8876   21.5483  -74.7479 H         1 UNK         0.3047 
    118 H118      -78.6595   23.3063  -77.8274 H         1 UNK         0.0822 
    119 H119      -80.7371   22.0628  -78.3425 H         1 UNK         0.0807 
    120 H120      -80.3754   20.8719  -77.0921 H         1 UNK         0.0807 
    121 H121      -79.3503   21.0018  -78.5144 H         1 UNK         0.0807 
    122 H122      -80.8227   23.1073  -76.0389 H         1 UNK         0.2946 
    123 H123      -81.4451   24.7788  -74.7863 H         1 UNK         0.1144 
    124 H124      -80.0979   24.0825  -72.7951 H         1 UNK         0.0793 
    125 H125      -80.8366   25.6519  -72.5151 H         1 UNK         0.0793 
    126 H126      -79.1252   25.5403  -72.9242 H         1 UNK         0.0793 
    127 H127      -79.6178   26.9192  -75.5083 H         1 UNK         0.2896 
@<TRIPOS>BOND
     1    1    2 1    
     2    1   67 1    
     3    1   68 1    
     4    1   69 1    
     5    2    3 2    
     6    2    4 am   BACKBONE|DICT|INTERRES
     7    4    5 1    
     8    4   70 1    
     9    5    6 1    
    10    5   65 1    
    11    5   71 1    
    12    6    7 1    
    13    6   72 1    
    14    6   73 1    
    15    7    8 1    
    16    8    9 1    
    17    8   74 1    
    18    8   75 1    
    19    9   10 ar   
    20    9   14 ar   
    21   10   11 ar   
    22   10   76 1    
    23   11   12 ar   
    24   11   48 1    
    25   12   13 ar   
    26   12   77 1    
    27   13   14 ar   
    28   13   15 1    
    29   14   78 1    
    30   15   16 1    
    31   15   79 1    
    32   15   80 1    
    33   16   17 1    
    34   17   18 1    
    35   17   81 1    
    36   17   82 1    
    37   18   19 1    
    38   18   22 1    
    39   18   83 1    
    40   19   20 am   BACKBONE|DICT|INTERRES
    41   19   21 2    
    42   20   84 1    
    43   20   85 1    
    44   22   23 am   BACKBONE|DICT|INTERRES
    45   22   86 1    
    46   23   24 2    
    47   23   25 1    
    48   25   26 1    
    49   25   27 1    
    50   25   87 1    
    51   26   88 1    
    52   26   89 1    
    53   26   90 1    
    54   27   28 am   BACKBONE|DICT|INTERRES
    55   27   91 1    
    56   28   29 2    
    57   28   30 1    
    58   30   31 1    
    59   30   32 1    
    60   30   92 1    
    61   31   93 1    
    62   31   94 1    
    63   31   95 1    
    64   32   33 am   BACKBONE|DICT|INTERRES
    65   32   96 1    
    66   33   34 2    
    67   33   35 1    
    68   35   36 1    
    69   35   37 1    
    70   35   97 1    
    71   36   98 1    
    72   36   99 1    
    73   36  100 1    
    74   37   38 am   BACKBONE|DICT|INTERRES
    75   37  101 1    
    76   38   39 2    
    77   38   40 1    
    78   40   41 1    
    79   40   42 1    
    80   40  102 1    
    81   41  103 1    
    82   41  104 1    
    83   41  105 1    
    84   42   43 am   BACKBONE|DICT|INTERRES
    85   42  106 1    
    86   43   44 2    
    87   43   45 1    
    88   45   46 1    
    89   45   49 1    
    90   45  107 1    
    91   46   47 1    
    92   46  108 1    
    93   46  109 1    
    94   47   48 1    
    95   48  110 1    
    96   48  111 1    
    97   49   50 am   BACKBONE|DICT|INTERRES
    98   49  112 1    
    99   50   51 2    
   100   50   52 1    
   101   52   53 1    
   102   52   54 1    
   103   52  113 1    
   104   53  114 1    
   105   53  115 1    
   106   53  116 1    
   107   54   55 am   BACKBONE|DICT|INTERRES
   108   54  117 1    
   109   55   56 2    
   110   55   57 1    
   111   57   58 1    
   112   57   59 1    
   113   57  118 1    
   114   58  119 1    
   115   58  120 1    
   116   58  121 1    
   117   59   60 am   BACKBONE|DICT|INTERRES
   118   59  122 1    
   119   60   61 2    
   120   60   62 1    
   121   62   63 1    
   122   62   64 1    
   123   62  123 1    
   124   63  124 1    
   125   63  125 1    
   126   63  126 1    
   127   64   65 am   BACKBONE|DICT|INTERRES
   128   64  127 1    
   129   65   66 2    
@<TRIPOS>SUBSTRUCTURE
     1 UNK         1 GROUP             0       ****    0 ROOT    
