@<TRIPOS>MOLECULE
3R135
127   129    1
SMALL
USER_CHARGES


@<TRIPOS>ATOM
      1 CA        -85.4019   25.4072  -71.3384 C.3       0 UNK        -0.1998 
      2 C         -84.3752   26.2666  -72.0608 C.2       0 UNK         0.4909 
      3 O         -84.7433   27.2603  -72.6879 O.2       0 UNK        -0.5240 
      4 N         -83.0915   25.8937  -71.9705 N.am      1 UNK        -0.4739 
      5 CA        -81.9625   26.5806  -72.6121 C.3       1 UNK         0.0864 
      6 C6        -80.6062   26.0480  -72.0857 C.3       11 UNK        -0.0881 
      7 S7        -80.2880   26.6241  -70.3833 S.3       11 UNK        -0.2682 
      8 C8        -78.4602   26.6769  -70.3262 C.3       11 UNK         0.0289 
      9 C9        -77.7766   27.8217  -71.0825 C.ar      11 UNK        -0.0687 
     10 C10       -78.4564   28.6765  -71.9606 C.ar      11 UNK        -0.0823 
     11 C11       -77.7668   29.6474  -72.6905 C.ar      11 UNK        -0.0830 
     12 C12       -76.3923   29.8038  -72.5045 C.ar      11 UNK        -0.1021 
     13 C13       -75.7001   28.9826  -71.6112 C.ar      11 UNK        -0.0753 
     14 C14       -76.3975   27.9915  -70.9125 C.ar      11 UNK        -0.0933 
     15 C15       -74.1907   29.1095  -71.4576 C.3       11 UNK         0.0166 
     16 S16       -73.6374   30.8188  -71.1556 S.3       11 UNK        -0.2615 
     17 C17       -71.8269   30.5845  -71.1770 C.3       11 UNK        -0.0865 
     18 CA        -71.1638   30.9464  -72.5343 C.3       10 UNK         0.0862 
     19 C         -69.6151   30.8208  -72.4160 C.2       10 UNK         0.5551 
     20 N         -68.9820   29.8093  -73.0008 N.am      10 UNK        -0.7319 
     21 O         -68.9810   31.6577  -71.7783 O.2       10 UNK        -0.5018 
     22 N         -71.7438   30.1836  -73.6515 N.am      10 UNK        -0.4509 
     23 C         -71.5281   30.4232  -74.9513 C.2       10 UNK         0.4899 
     24 O         -70.9404   31.4229  -75.3672 O.2       10 UNK        -0.4839 
     25 CA        -72.0473   29.3717  -75.9586 C.3       9 UNK         0.0222 
     26 CB        -71.1065   29.2191  -77.1716 C.3       9 UNK        -0.1966 
     27 N         -72.3475   28.0479  -75.3878 N.am      9 UNK        -0.4218 
     28 C         -71.5129   27.2399  -74.7123 C.2       9 UNK         0.5020 
     29 O         -70.3543   27.5397  -74.4183 O.2       9 UNK        -0.5274 
     30 CA        -72.0687   25.8823  -74.2555 C.3       8 UNK         0.0270 
     31 CB        -72.8801   26.0271  -72.9588 C.3       8 UNK        -0.1976 
     32 N         -72.8832   25.2243  -75.2794 N.am      8 UNK        -0.4313 
     33 C         -72.3673   24.5972  -76.3468 C.2       8 UNK         0.5041 
     34 O         -71.1597   24.5188  -76.5780 O.2       8 UNK        -0.5577 
     35 CA        -73.3562   23.9277  -77.3151 C.3       7 UNK         0.0284 
     36 CB        -73.9000   22.6189  -76.7207 C.3       7 UNK        -0.1958 
     37 N         -74.4668   24.8022  -77.6920 N.am      7 UNK        -0.4454 
     38 C         -74.3405   25.9065  -78.4416 C.2       7 UNK         0.5089 
     39 O         -73.2765   26.2945  -78.9246 O.2       7 UNK        -0.5125 
     40 CA        -75.6191   26.7239  -78.6915 C.3       6 UNK         0.0408 
     41 CB        -76.4037   26.1560  -79.8849 C.3       6 UNK        -0.1791 
     42 N         -76.4926   26.7911  -77.5190 N.am      6 UNK        -0.4762 
     43 C         -76.1752   27.3990  -76.3664 C.2       6 UNK         0.5007 
     44 O         -75.1020   27.9650  -76.1577 O.2       6 UNK        -0.5032 
     45 CA        -77.2145   27.2968  -75.2354 C.3       5 UNK         0.0783 
     46 C46       -78.4288   28.2350  -75.4691 C.3       11 UNK        -0.0857 
     47 S47       -78.0069   30.0137  -75.4202 S.3       11 UNK        -0.2512 
     48 C48       -78.4959   30.4850  -73.7287 C.3       11 UNK         0.0225 
     49 N         -77.6295   25.9037  -75.0405 N.am      5 UNK        -0.4615 
     50 C         -76.8089   24.9210  -74.6337 C.2       4 UNK         0.5053 
     51 O         -75.6284   25.0972  -74.3371 O.2       4 UNK        -0.5105 
     52 CA        -77.3702   23.4882  -74.5923 C.3       4 UNK         0.0263 
     53 CB        -77.9410   23.1759  -73.2014 C.3       4 UNK        -0.1981 
     54 N         -78.3862   23.2258  -75.6131 N.am      4 UNK        -0.4224 
     55 C         -78.1873   23.3170  -76.9364 C.2       3 UNK         0.4895 
     56 O         -77.0935   23.5573  -77.4481 O.2       3 UNK        -0.5091 
     57 CA        -79.4251   23.1727  -77.8416 C.3       3 UNK         0.0250 
     58 CB        -79.5370   21.7332  -78.3676 C.3       3 UNK        -0.1996 
     59 N         -80.6974   23.5634  -77.2149 N.am      3 UNK        -0.4254 
     60 C         -80.9659   24.7631  -76.6756 C.2       2 UNK         0.5004 
     61 O         -80.1287   25.6633  -76.6016 O.2       2 UNK        -0.5226 
     62 CA        -82.3812   24.9954  -76.1063 C.3       2 UNK         0.0269 
     63 CB        -83.3531   23.8169  -76.3244 C.3       2 UNK        -0.1926 
     64 N         -82.3233   25.2989  -74.6743 N.am      2 UNK        -0.4687 
     65 C         -82.0291   26.4980  -74.1503 C.2       1 UNK         0.5165 
     66 O         -81.8381   27.5151  -74.8172 O.2       1 UNK        -0.5079 
     67 H67       -84.9397   24.5669  -70.8212 H         1 UNK         0.0900 
     68 H68       -86.1259   25.0106  -72.0493 H         1 UNK         0.0900 
     69 H69       -85.9389   26.0039  -70.6021 H         1 UNK         0.0900 
     70 H70       -82.8516   25.0862  -71.4131 H         1 UNK         0.2959 
     71 H71       -82.0380   27.6416  -72.3615 H         1 UNK         0.1079 
     72 H72       -80.5956   24.9574  -72.0900 H         1 UNK         0.0837 
     73 H73       -79.7803   26.3568  -72.7291 H         1 UNK         0.0837 
     74 H74       -78.1683   26.7349  -69.2765 H         1 UNK         0.0685 
     75 H75       -78.0727   25.7277  -70.6996 H         1 UNK         0.0685 
     76 H76       -79.5196   28.5768  -72.1152 H         1 UNK         0.1434 
     77 H77       -75.8557   30.5457  -73.0805 H         1 UNK         0.1329 
     78 H78       -75.8603   27.3323  -70.2440 H         1 UNK         0.1335 
     79 H79       -73.8290   28.4721  -70.6492 H         1 UNK         0.0680 
     80 H80       -73.7301   28.7500  -72.3753 H         1 UNK         0.0680 
     81 H81       -71.5869   29.5577  -70.8938 H         1 UNK         0.1032 
     82 H82       -71.4152   31.2113  -70.3832 H         1 UNK         0.1032 
     83 H83       -71.3712   32.0001  -72.7308 H         1 UNK         0.0461 
     84 H84       -67.9804   29.7405  -72.9177 H         1 UNK         0.3453 
     85 H85       -69.4949   29.1028  -73.5191 H         1 UNK         0.3453 
     86 H86       -72.2324   29.3385  -73.4061 H         1 UNK         0.2984 
     87 H87       -72.9977   29.7594  -76.3271 H         1 UNK         0.0554 
     88 H88       -71.5015   28.4995  -77.8894 H         1 UNK         0.0847 
     89 H89       -70.1137   28.8823  -76.8712 H         1 UNK         0.0847 
     90 H90       -70.9843   30.1655  -77.6996 H         1 UNK         0.0847 
     91 H91       -73.2997   27.7319  -75.5613 H         1 UNK         0.3141 
     92 H92       -71.2128   25.2403  -74.0349 H         1 UNK         0.0743 
     93 H93       -73.8010   26.5870  -73.1202 H         1 UNK         0.0784 
     94 H94       -73.1571   25.0515  -72.5587 H         1 UNK         0.0784 
     95 H95       -72.3052   26.5417  -72.1877 H         1 UNK         0.0784 
     96 H96       -73.8901   25.2166  -75.1293 H         1 UNK         0.3213 
     97 H97       -72.8093   23.6788  -78.2273 H         1 UNK         0.0855 
     98 H98       -74.4421   22.7925  -75.7918 H         1 UNK         0.0814 
     99 H99       -73.0874   21.9262  -76.4979 H         1 UNK         0.0814 
    100 H100      -74.5745   22.1162  -77.4143 H         1 UNK         0.0814 
    101 H101      -75.3997   24.5161  -77.4066 H         1 UNK         0.3105 
    102 H102      -75.3168   27.7439  -78.9382 H         1 UNK         0.0547 
    103 H103      -75.7798   26.1212  -80.7790 H         1 UNK         0.0837 
    104 H104      -76.7548   25.1412  -79.6941 H         1 UNK         0.0837 
    105 H105      -77.2708   26.7731  -80.1205 H         1 UNK         0.0837 
    106 H106      -77.3785   26.3087  -77.5794 H         1 UNK         0.3020 
    107 H107      -76.7137   27.6059  -74.3159 H         1 UNK         0.1245 
    108 H108      -79.1969   28.0400  -74.7209 H         1 UNK         0.0781 
    109 H109      -78.9012   28.0258  -76.4302 H         1 UNK         0.0781 
    110 H110      -79.5779   30.3856  -73.6266 H         1 UNK         0.0836 
    111 H111      -78.2672   31.5399  -73.5707 H         1 UNK         0.0836 
    112 H112      -78.5659   25.6717  -75.3569 H         1 UNK         0.3022 
    113 H113      -76.5399   22.8047  -74.7757 H         1 UNK         0.0747 
    114 H114      -78.2472   22.1326  -73.1221 H         1 UNK         0.0793 
    115 H115      -77.1955   23.3533  -72.4246 H         1 UNK         0.0793 
    116 H116      -78.8040   23.7985  -72.9722 H         1 UNK         0.0793 
    117 H117      -79.3187   23.0184  -75.2880 H         1 UNK         0.3047 
    118 H118      -79.2701   23.8362  -78.6950 H         1 UNK         0.0822 
    119 H119      -80.3378   21.6387  -79.1013 H         1 UNK         0.0807 
    120 H120      -79.7309   21.0226  -77.5631 H         1 UNK         0.0807 
    121 H121      -78.6132   21.4244  -78.8594 H         1 UNK         0.0807 
    122 H122      -81.4356   22.8745  -77.2311 H         1 UNK         0.2946 
    123 H123      -82.7860   25.8621  -76.6343 H         1 UNK         0.1144 
    124 H124      -83.4637   23.5829  -77.3844 H         1 UNK         0.0793 
    125 H125      -84.3489   24.0625  -75.9540 H         1 UNK         0.0793 
    126 H126      -83.0282   22.9115  -75.8100 H         1 UNK         0.0793 
    127 H127      -82.4795   24.5285  -74.0408 H         1 UNK         0.2896 
@<TRIPOS>BOND
     1    1    2 1    
     2    1   67 1    
     3    1   68 1    
     4    1   69 1    
     5    2    3 2    
     6    2    4 am   BACKBONE|DICT|INTERRES
     7    4    5 1    
     8    4   70 1    
     9    5    6 1    
    10    5   65 1    
    11    5   71 1    
    12    6    7 1    
    13    6   72 1    
    14    6   73 1    
    15    7    8 1    
    16    8    9 1    
    17    8   74 1    
    18    8   75 1    
    19    9   10 ar   
    20    9   14 ar   
    21   10   11 ar   
    22   10   76 1    
    23   11   12 ar   
    24   11   48 1    
    25   12   13 ar   
    26   12   77 1    
    27   13   14 ar   
    28   13   15 1    
    29   14   78 1    
    30   15   16 1    
    31   15   79 1    
    32   15   80 1    
    33   16   17 1    
    34   17   18 1    
    35   17   81 1    
    36   17   82 1    
    37   18   19 1    
    38   18   22 1    
    39   18   83 1    
    40   19   20 am   BACKBONE|DICT|INTERRES
    41   19   21 2    
    42   20   84 1    
    43   20   85 1    
    44   22   23 am   BACKBONE|DICT|INTERRES
    45   22   86 1    
    46   23   24 2    
    47   23   25 1    
    48   25   26 1    
    49   25   27 1    
    50   25   87 1    
    51   26   88 1    
    52   26   89 1    
    53   26   90 1    
    54   27   28 am   BACKBONE|DICT|INTERRES
    55   27   91 1    
    56   28   29 2    
    57   28   30 1    
    58   30   31 1    
    59   30   32 1    
    60   30   92 1    
    61   31   93 1    
    62   31   94 1    
    63   31   95 1    
    64   32   33 am   BACKBONE|DICT|INTERRES
    65   32   96 1    
    66   33   34 2    
    67   33   35 1    
    68   35   36 1    
    69   35   37 1    
    70   35   97 1    
    71   36   98 1    
    72   36   99 1    
    73   36  100 1    
    74   37   38 am   BACKBONE|DICT|INTERRES
    75   37  101 1    
    76   38   39 2    
    77   38   40 1    
    78   40   41 1    
    79   40   42 1    
    80   40  102 1    
    81   41  103 1    
    82   41  104 1    
    83   41  105 1    
    84   42   43 am   BACKBONE|DICT|INTERRES
    85   42  106 1    
    86   43   44 2    
    87   43   45 1    
    88   45   46 1    
    89   45   49 1    
    90   45  107 1    
    91   46   47 1    
    92   46  108 1    
    93   46  109 1    
    94   47   48 1    
    95   48  110 1    
    96   48  111 1    
    97   49   50 am   BACKBONE|DICT|INTERRES
    98   49  112 1    
    99   50   51 2    
   100   50   52 1    
   101   52   53 1    
   102   52   54 1    
   103   52  113 1    
   104   53  114 1    
   105   53  115 1    
   106   53  116 1    
   107   54   55 am   BACKBONE|DICT|INTERRES
   108   54  117 1    
   109   55   56 2    
   110   55   57 1    
   111   57   58 1    
   112   57   59 1    
   113   57  118 1    
   114   58  119 1    
   115   58  120 1    
   116   58  121 1    
   117   59   60 am   BACKBONE|DICT|INTERRES
   118   59  122 1    
   119   60   61 2    
   120   60   62 1    
   121   62   63 1    
   122   62   64 1    
   123   62  123 1    
   124   63  124 1    
   125   63  125 1    
   126   63  126 1    
   127   64   65 am   BACKBONE|DICT|INTERRES
   128   64  127 1    
   129   65   66 2    
@<TRIPOS>SUBSTRUCTURE
     1 UNK         1 GROUP             0       ****    0 ROOT    
