@<TRIPOS>MOLECULE
3R135
127   129    1
SMALL
USER_CHARGES


@<TRIPOS>ATOM
      1 CA        -85.3373   27.0595  -72.2734 C.3       0 UNK        -0.1998 
      2 C         -84.0732   27.2357  -73.1011 C.2       0 UNK         0.4909 
      3 O         -84.0987   27.9278  -74.1189 O.2       0 UNK        -0.5240 
      4 N         -82.9676   26.6100  -72.6756 N.am      1 UNK        -0.4739 
      5 CA        -81.6555   26.6829  -73.3364 C.3       1 UNK         0.0864 
      6 C6        -80.4966   26.3768  -72.3532 C.3       11 UNK        -0.0881 
      7 S7        -80.4460   27.5536  -70.9579 S.3       11 UNK        -0.2682 
      8 C8        -78.7550   27.2934  -70.3130 C.3       11 UNK         0.0289 
      9 C9        -77.6645   28.1990  -70.8956 C.ar      11 UNK        -0.0687 
     10 C10       -77.7905   28.8453  -72.1324 C.ar      11 UNK        -0.0823 
     11 C11       -76.7470   29.6287  -72.6471 C.ar      11 UNK        -0.0830 
     12 C12       -75.5867   29.7899  -71.8874 C.ar      11 UNK        -0.1021 
     13 C13       -75.4446   29.1723  -70.6420 C.ar      11 UNK        -0.0753 
     14 C14       -76.4852   28.3706  -70.1627 C.ar      11 UNK        -0.0933 
     15 C15       -74.1998   29.3901  -69.7831 C.3       11 UNK         0.0166 
     16 S16       -72.6284   29.1727  -70.6842 S.3       11 UNK        -0.2615 
     17 C17       -72.2176   30.8974  -71.1407 C.3       11 UNK        -0.0865 
     18 CA        -71.3378   31.0172  -72.4146 C.3       10 UNK         0.0862 
     19 C         -69.8470   30.6646  -72.1235 C.2       10 UNK         0.5551 
     20 N         -69.2694   29.6277  -72.7189 N.am      10 UNK        -0.7319 
     21 O         -69.1971   31.3612  -71.3473 O.2       10 UNK        -0.5018 
     22 N         -71.9332   30.3134  -73.5618 N.am      10 UNK        -0.4509 
     23 C         -71.6122   30.5290  -74.8448 C.2       10 UNK         0.4899 
     24 O         -70.8973   31.4615  -75.2157 O.2       10 UNK        -0.4839 
     25 CA        -72.1763   29.5387  -75.8890 C.3       9 UNK         0.0222 
     26 CB        -71.2688   29.4137  -77.1303 C.3       9 UNK        -0.1966 
     27 N         -72.4925   28.2022  -75.3626 N.am      9 UNK        -0.4218 
     28 C         -71.6630   27.3665  -74.7156 C.2       9 UNK         0.5020 
     29 O         -70.4905   27.6309  -74.4459 O.2       9 UNK        -0.5274 
     30 CA        -72.2444   26.0198  -74.2649 C.3       8 UNK         0.0270 
     31 CB        -73.1074   26.1972  -73.0047 C.3       8 UNK        -0.1976 
     32 N         -73.0215   25.3594  -75.3146 N.am      8 UNK        -0.4313 
     33 C         -72.4804   24.7404  -76.3737 C.2       8 UNK         0.5041 
     34 O         -71.2683   24.6738  -76.5837 O.2       8 UNK        -0.5577 
     35 CA        -73.4478   24.0646  -77.3605 C.3       7 UNK         0.0284 
     36 CB        -73.9929   22.7491  -76.7813 C.3       7 UNK        -0.1958 
     37 N         -74.5599   24.9314  -77.7495 N.am      7 UNK        -0.4454 
     38 C         -74.4346   26.0315  -78.5052 C.2       7 UNK         0.5089 
     39 O         -73.3719   26.4162  -78.9934 O.2       7 UNK        -0.5125 
     40 CA        -75.7138   26.8487  -78.7523 C.3       6 UNK         0.0408 
     41 CB        -76.4967   26.2865  -79.9494 C.3       6 UNK        -0.1791 
     42 N         -76.5844   26.9015  -77.5764 N.am      6 UNK        -0.4762 
     43 C         -76.2762   27.5383  -76.4373 C.2       6 UNK         0.5007 
     44 O         -75.2271   28.1567  -76.2605 O.2       6 UNK        -0.5032 
     45 CA        -77.2801   27.4006  -75.2789 C.3       5 UNK         0.0783 
     46 C46       -78.4925   28.3562  -75.4457 C.3       11 UNK        -0.0857 
     47 S47       -78.3222   30.1248  -74.9985 S.3       11 UNK        -0.2512 
     48 C48       -76.7895   30.3109  -74.0182 C.3       11 UNK         0.0225 
     49 N         -77.7131   26.0092  -75.1054 N.am      5 UNK        -0.4615 
     50 C         -76.8971   25.0094  -74.7410 C.2       4 UNK         0.5053 
     51 O         -75.6991   25.1598  -74.5136 O.2       4 UNK        -0.5105 
     52 CA        -77.4909   23.5964  -74.6459 C.3       4 UNK         0.0263 
     53 CB        -78.1056   23.3601  -73.2584 C.3       4 UNK        -0.1981 
     54 N         -78.4838   23.2927  -75.6750 N.am      4 UNK        -0.4224 
     55 C         -78.3045   23.3521  -77.0000 C.2       3 UNK         0.4895 
     56 O         -77.2520   23.7096  -77.5308 O.2       3 UNK        -0.5091 
     57 CA        -79.5047   22.9711  -77.8889 C.3       3 UNK         0.0250 
     58 CB        -79.5651   21.4477  -78.1115 C.3       3 UNK        -0.1996 
     59 N         -80.7985   23.5079  -77.4323 N.am      3 UNK        -0.4254 
     60 C         -81.4826   23.2275  -76.3121 C.2       2 UNK         0.5004 
     61 O         -81.1413   22.3849  -75.4790 O.2       2 UNK        -0.5226 
     62 CA        -82.7234   24.0940  -76.0372 C.3       2 UNK         0.0269 
     63 CB        -83.9787   23.2202  -75.8771 C.3       2 UNK        -0.1926 
     64 N         -82.5696   24.9390  -74.8460 N.am      2 UNK        -0.4687 
     65 C         -81.5664   25.7995  -74.6039 C.2       1 UNK         0.5165 
     66 O         -80.5909   25.9262  -75.3452 O.2       1 UNK        -0.5079 
     67 H67       -85.1701   26.4249  -71.4032 H         1 UNK         0.0900 
     68 H68       -86.1222   26.6063  -72.8783 H         1 UNK         0.0900 
     69 H69       -85.6933   28.0278  -71.9228 H         1 UNK         0.0900 
     70 H70       -82.9974   26.0702  -71.8218 H         1 UNK         0.2959 
     71 H71       -81.5201   27.7088  -73.6871 H         1 UNK         0.1079 
     72 H72       -79.5337   26.4153  -72.8652 H         1 UNK         0.0837 
     73 H73       -80.5920   25.3671  -71.9501 H         1 UNK         0.0837 
     74 H74       -78.7985   27.4474  -69.2336 H         1 UNK         0.0685 
     75 H75       -78.4670   26.2514  -70.4593 H         1 UNK         0.0685 
     76 H76       -78.6996   28.7246  -72.6977 H         1 UNK         0.1434 
     77 H77       -74.7892   30.4024  -72.2793 H         1 UNK         0.1329 
     78 H78       -76.3824   27.8830  -69.2027 H         1 UNK         0.1335 
     79 H79       -74.1954   28.6869  -68.9489 H         1 UNK         0.0680 
     80 H80       -74.2402   30.3847  -69.3370 H         1 UNK         0.0680 
     81 H81       -73.1358   31.4652  -71.2883 H         1 UNK         0.1032 
     82 H82       -71.7315   31.3748  -70.2875 H         1 UNK         0.1032 
     83 H83       -71.3257   32.0771  -72.6766 H         1 UNK         0.0461 
     84 H84       -69.7892   29.0272  -73.3530 H         1 UNK         0.3453 
     85 H85       -68.3036   29.4232  -72.5198 H         1 UNK         0.3453 
     86 H86       -72.5002   29.5106  -73.3334 H         1 UNK         0.2984 
     87 H87       -73.1255   29.9633  -76.2178 H         1 UNK         0.0554 
     88 H88       -71.6979   28.7327  -77.8660 H         1 UNK         0.0847 
     89 H89       -70.2775   29.0422  -76.8681 H         1 UNK         0.0847 
     90 H90       -71.1368   30.3778  -77.6228 H         1 UNK         0.0847 
     91 H91       -73.4481   27.9017  -75.5402 H         1 UNK         0.3141 
     92 H92       -71.4079   25.3677  -74.0037 H         1 UNK         0.0743 
     93 H93       -73.9481   26.8720  -73.1736 H         1 UNK         0.0784 
     94 H94       -73.5102   25.2438  -72.6625 H         1 UNK         0.0784 
     95 H95       -72.5159   26.6077  -72.1863 H         1 UNK         0.0784 
     96 H96       -74.0322   25.3291  -75.1806 H         1 UNK         0.3213 
     97 H97       -72.8839   23.8238  -78.2645 H         1 UNK         0.0855 
     98 H98       -73.1792   22.0633  -76.5417 H         1 UNK         0.0814 
     99 H99       -74.6467   22.2425  -77.4915 H         1 UNK         0.0814 
    100 H100      -74.5587   22.9144  -75.8650 H         1 UNK         0.0814 
    101 H101      -75.4907   24.6543  -77.4512 H         1 UNK         0.3105 
    102 H102      -75.4135   27.8707  -78.9935 H         1 UNK         0.0547 
    103 H103      -75.8738   26.2636  -80.8446 H         1 UNK         0.0837 
    104 H104      -76.8412   25.2678  -79.7676 H         1 UNK         0.0837 
    105 H105      -77.3678   26.9004  -80.1784 H         1 UNK         0.0837 
    106 H106      -77.4358   26.3591  -77.6126 H         1 UNK         0.3020 
    107 H107      -76.7372   27.6458  -74.3684 H         1 UNK         0.1245 
    108 H108      -79.3010   28.0091  -74.8066 H         1 UNK         0.0781 
    109 H109      -78.8973   28.2962  -76.4579 H         1 UNK         0.0781 
    110 H110      -76.6439   31.3805  -73.8602 H         1 UNK         0.0836 
    111 H111      -75.9366   29.9876  -74.6136 H         1 UNK         0.0836 
    112 H112      -78.6950   25.8118  -75.2834 H         1 UNK         0.3022 
    113 H113      -76.6695   22.8899  -74.7743 H         1 UNK         0.0747 
    114 H114      -77.4007   23.6152  -72.4656 H         1 UNK         0.0793 
    115 H115      -79.0017   23.9610  -73.1094 H         1 UNK         0.0793 
    116 H116      -78.3812   22.3142  -73.1223 H         1 UNK         0.0793 
    117 H117      -79.3965   22.9738  -75.3571 H         1 UNK         0.3047 
    118 H118      -79.3229   23.4335  -78.8605 H         1 UNK         0.0822 
    119 H119      -79.7237   20.9021  -77.1808 H         1 UNK         0.0807 
    120 H120      -78.6327   21.0822  -78.5441 H         1 UNK         0.0807 
    121 H121      -80.3678   21.1792  -78.7983 H         1 UNK         0.0807 
    122 H122      -81.1586   24.2551  -78.0101 H         1 UNK         0.2946 
    123 H123      -82.8823   24.7601  -76.8879 H         1 UNK         0.1144 
    124 H124      -84.1269   22.5856  -76.7520 H         1 UNK         0.0793 
    125 H125      -83.9059   22.5646  -75.0082 H         1 UNK         0.0793 
    126 H126      -84.8761   23.8290  -75.7646 H         1 UNK         0.0793 
    127 H127      -83.3142   24.8958  -74.1661 H         1 UNK         0.2896 
@<TRIPOS>BOND
     1    1    2 1    
     2    1   67 1    
     3    1   68 1    
     4    1   69 1    
     5    2    3 2    
     6    2    4 am   BACKBONE|DICT|INTERRES
     7    4    5 1    
     8    4   70 1    
     9    5    6 1    
    10    5   65 1    
    11    5   71 1    
    12    6    7 1    
    13    6   72 1    
    14    6   73 1    
    15    7    8 1    
    16    8    9 1    
    17    8   74 1    
    18    8   75 1    
    19    9   10 ar   
    20    9   14 ar   
    21   10   11 ar   
    22   10   76 1    
    23   11   12 ar   
    24   11   48 1    
    25   12   13 ar   
    26   12   77 1    
    27   13   14 ar   
    28   13   15 1    
    29   14   78 1    
    30   15   16 1    
    31   15   79 1    
    32   15   80 1    
    33   16   17 1    
    34   17   18 1    
    35   17   81 1    
    36   17   82 1    
    37   18   19 1    
    38   18   22 1    
    39   18   83 1    
    40   19   20 am   BACKBONE|DICT|INTERRES
    41   19   21 2    
    42   20   84 1    
    43   20   85 1    
    44   22   23 am   BACKBONE|DICT|INTERRES
    45   22   86 1    
    46   23   24 2    
    47   23   25 1    
    48   25   26 1    
    49   25   27 1    
    50   25   87 1    
    51   26   88 1    
    52   26   89 1    
    53   26   90 1    
    54   27   28 am   BACKBONE|DICT|INTERRES
    55   27   91 1    
    56   28   29 2    
    57   28   30 1    
    58   30   31 1    
    59   30   32 1    
    60   30   92 1    
    61   31   93 1    
    62   31   94 1    
    63   31   95 1    
    64   32   33 am   BACKBONE|DICT|INTERRES
    65   32   96 1    
    66   33   34 2    
    67   33   35 1    
    68   35   36 1    
    69   35   37 1    
    70   35   97 1    
    71   36   98 1    
    72   36   99 1    
    73   36  100 1    
    74   37   38 am   BACKBONE|DICT|INTERRES
    75   37  101 1    
    76   38   39 2    
    77   38   40 1    
    78   40   41 1    
    79   40   42 1    
    80   40  102 1    
    81   41  103 1    
    82   41  104 1    
    83   41  105 1    
    84   42   43 am   BACKBONE|DICT|INTERRES
    85   42  106 1    
    86   43   44 2    
    87   43   45 1    
    88   45   46 1    
    89   45   49 1    
    90   45  107 1    
    91   46   47 1    
    92   46  108 1    
    93   46  109 1    
    94   47   48 1    
    95   48  110 1    
    96   48  111 1    
    97   49   50 am   BACKBONE|DICT|INTERRES
    98   49  112 1    
    99   50   51 2    
   100   50   52 1    
   101   52   53 1    
   102   52   54 1    
   103   52  113 1    
   104   53  114 1    
   105   53  115 1    
   106   53  116 1    
   107   54   55 am   BACKBONE|DICT|INTERRES
   108   54  117 1    
   109   55   56 2    
   110   55   57 1    
   111   57   58 1    
   112   57   59 1    
   113   57  118 1    
   114   58  119 1    
   115   58  120 1    
   116   58  121 1    
   117   59   60 am   BACKBONE|DICT|INTERRES
   118   59  122 1    
   119   60   61 2    
   120   60   62 1    
   121   62   63 1    
   122   62   64 1    
   123   62  123 1    
   124   63  124 1    
   125   63  125 1    
   126   63  126 1    
   127   64   65 am   BACKBONE|DICT|INTERRES
   128   64  127 1    
   129   65   66 2    
@<TRIPOS>SUBSTRUCTURE
     1 UNK         1 GROUP             0       ****    0 ROOT    
