@<TRIPOS>MOLECULE
3R135
127   129    1
SMALL
USER_CHARGES


@<TRIPOS>ATOM
      1 CA        -78.9951   30.3609  -76.3421 C.3       0 UNK        -0.1998 
      2 C         -79.2530   29.2924  -75.2907 C.2       0 UNK         0.4909 
      3 O         -78.4171   28.4113  -75.1013 O.2       0 UNK        -0.5240 
      4 N         -80.3979   29.3673  -74.6005 N.am      1 UNK        -0.4739 
      5 CA        -80.7926   28.4065  -73.5664 C.3       1 UNK         0.0864 
      6 C6        -81.9229   28.9457  -72.6517 C.3       11 UNK        -0.0881 
      7 S7        -81.5223   30.5429  -71.8623 S.3       11 UNK        -0.2682 
      8 C8        -80.8357   30.0179  -70.2576 C.3       11 UNK         0.0289 
      9 C9        -79.4739   29.3586  -70.4191 C.ar      11 UNK        -0.0687 
     10 C10       -79.3296   27.9764  -70.2612 C.ar      11 UNK        -0.0823 
     11 C11       -78.0875   27.3609  -70.4526 C.ar      11 UNK        -0.0830 
     12 C12       -76.9757   28.1580  -70.7548 C.ar      11 UNK        -0.1021 
     13 C13       -77.1151   29.5325  -70.9562 C.ar      11 UNK        -0.0753 
     14 C14       -78.3624   30.1315  -70.7661 C.ar      11 UNK        -0.0933 
     15 C15       -75.9368   30.3554  -71.4518 C.3       11 UNK         0.0166 
     16 S16       -76.0767   30.6080  -73.2488 S.3       11 UNK        -0.2615 
     17 C17       -74.5061   31.4443  -73.6450 C.3       11 UNK        -0.0865 
     18 CA        -73.6756   30.6599  -74.7058 C.3       10 UNK         0.0862 
     19 C         -72.4736   31.4855  -75.2609 C.2       10 UNK         0.5551 
     20 N         -72.7160   32.7070  -75.7190 N.am      10 UNK        -0.7319 
     21 O         -71.3323   31.0333  -75.3211 O.2       10 UNK        -0.5018 
     22 N         -73.3162   29.3006  -74.2635 N.am      10 UNK        -0.4509 
     23 C         -72.5211   28.9789  -73.2318 C.2       10 UNK         0.4899 
     24 O         -72.0239   29.7960  -72.4562 O.2       10 UNK        -0.4839 
     25 CA        -72.2280   27.4865  -73.0196 C.3       9 UNK         0.0222 
     26 CB        -73.2780   26.8729  -72.0794 C.3       9 UNK        -0.1966 
     27 N         -72.2267   26.7580  -74.2904 N.am      9 UNK        -0.4218 
     28 C         -71.1326   26.3479  -74.9440 C.2       9 UNK         0.5020 
     29 O         -69.9828   26.4865  -74.5239 O.2       9 UNK        -0.5274 
     30 CA        -71.3597   25.6558  -76.2986 C.3       8 UNK         0.0270 
     31 CB        -71.8622   24.2170  -76.0971 C.3       8 UNK        -0.1976 
     32 N         -72.2946   26.3779  -77.1632 N.am      8 UNK        -0.4313 
     33 C         -72.0561   27.5520  -77.7597 C.2       8 UNK         0.5041 
     34 O         -70.9908   28.1596  -77.6540 O.2       8 UNK        -0.5577 
     35 CA        -73.1744   28.1659  -78.6297 C.3       7 UNK         0.0284 
     36 CB        -72.9647   27.8210  -80.1175 C.3       7 UNK        -0.1958 
     37 N         -74.5503   27.8650  -78.1996 N.am      7 UNK        -0.4454 
     38 C         -75.1886   26.6867  -78.1768 C.2       7 UNK         0.5089 
     39 O         -74.6968   25.6224  -78.5562 O.2       7 UNK        -0.5125 
     40 CA        -76.5879   26.6922  -77.5383 C.3       6 UNK         0.0408 
     41 CB        -77.6489   26.1786  -78.5242 C.3       6 UNK        -0.1791 
     42 N         -76.6505   25.8922  -76.3123 N.am      6 UNK        -0.4762 
     43 C         -75.8110   25.9605  -75.2681 C.2       6 UNK         0.5007 
     44 O         -74.8369   26.7149  -75.2130 O.2       6 UNK        -0.5032 
     45 CA        -76.0886   25.0313  -74.0733 C.3       5 UNK         0.0783 
     46 C46       -76.9475   25.7559  -73.0099 C.3       11 UNK        -0.0857 
     47 S47       -76.6765   25.0515  -71.3484 S.3       11 UNK        -0.2512 
     48 C48       -77.9921   25.8368  -70.3459 C.3       11 UNK         0.0225 
     49 N         -76.7102   23.7775  -74.5048 N.am      5 UNK        -0.4615 
     50 C         -76.0462   22.6534  -74.8008 C.2       4 UNK         0.5053 
     51 O         -74.8226   22.5464  -74.7248 O.2       4 UNK        -0.5105 
     52 CA        -76.8742   21.4259  -75.2297 C.3       4 UNK         0.0263 
     53 CB        -76.9935   20.4326  -74.0620 C.3       4 UNK        -0.1981 
     54 N         -78.2192   21.7677  -75.6989 N.am      4 UNK        -0.4224 
     55 C         -78.5035   22.2474  -76.9179 C.2       3 UNK         0.4895 
     56 O         -77.6725   22.3710  -77.8172 O.2       3 UNK        -0.5091 
     57 CA        -79.9583   22.6944  -77.1687 C.3       3 UNK         0.0250 
     58 CB        -80.7716   21.5499  -77.7945 C.3       3 UNK        -0.1996 
     59 N         -80.6567   23.1930  -75.9738 N.am      3 UNK        -0.4254 
     60 C         -80.2488   24.2352  -75.2365 C.2       2 UNK         0.5004 
     61 O         -79.2094   24.8544  -75.4653 O.2       2 UNK        -0.5226 
     62 CA        -81.0889   24.5858  -73.9957 C.3       2 UNK         0.0269 
     63 CB        -80.7550   23.6211  -72.8445 C.3       2 UNK        -0.1926 
     64 N         -80.8479   25.9563  -73.5339 N.am      2 UNK        -0.4687 
     65 C         -81.2099   27.0624  -74.1970 C.2       1 UNK         0.5165 
     66 O         -81.8840   27.0519  -75.2311 O.2       1 UNK        -0.5079 
     67 H67       -78.8784   29.9004  -77.3227 H         1 UNK         0.0900 
     68 H68       -78.0780   30.9002  -76.1059 H         1 UNK         0.0900 
     69 H69       -79.8096   31.0828  -76.3985 H         1 UNK         0.0900 
     70 H70       -81.0615   30.1027  -74.7948 H         1 UNK         0.2959 
     71 H71       -79.9091   28.2249  -72.9520 H         1 UNK         0.1079 
     72 H72       -82.8401   29.0850  -73.2275 H         1 UNK         0.0837 
     73 H73       -82.1670   28.2196  -71.8739 H         1 UNK         0.0837 
     74 H74       -80.7343   30.8938  -69.6153 H         1 UNK         0.0685 
     75 H75       -81.5399   29.3519  -69.7564 H         1 UNK         0.0685 
     76 H76       -80.1938   27.3755  -70.0119 H         1 UNK         0.1434 
     77 H77       -76.0056   27.7039  -70.8946 H         1 UNK         0.1329 
     78 H78       -78.4777   31.1944  -70.9295 H         1 UNK         0.1335 
     79 H79       -75.9118   31.3210  -70.9447 H         1 UNK         0.0680 
     80 H80       -74.9944   29.8532  -71.2261 H         1 UNK         0.0680 
     81 H81       -73.9234   31.6073  -72.7373 H         1 UNK         0.1032 
     82 H82       -74.7679   32.4386  -74.0085 H         1 UNK         0.1032 
     83 H83       -74.3188   30.4991  -75.5720 H         1 UNK         0.0461 
     84 H84       -71.9502   33.2462  -76.0921 H         1 UNK         0.3453 
     85 H85       -73.6453   33.0967  -75.7179 H         1 UNK         0.3453 
     86 H86       -73.7124   28.5485  -74.8111 H         1 UNK         0.2984 
     87 H87       -71.2526   27.4016  -72.5363 H         1 UNK         0.0554 
     88 H88       -73.0993   25.8097  -71.9185 H         1 UNK         0.0847 
     89 H89       -74.2863   26.9892  -72.4750 H         1 UNK         0.0847 
     90 H90       -73.2563   27.3578  -71.1026 H         1 UNK         0.0847 
     91 H91       -73.1357   26.6221  -74.7305 H         1 UNK         0.3141 
     92 H92       -70.3972   25.6090  -76.8126 H         1 UNK         0.0743 
     93 H93       -72.8453   24.1949  -75.6255 H         1 UNK         0.0784 
     94 H94       -71.9362   23.6859  -77.0462 H         1 UNK         0.0784 
     95 H95       -71.1818   23.6498  -75.4605 H         1 UNK         0.0784 
     96 H96       -73.1848   25.9324  -77.3657 H         1 UNK         0.3213 
     97 H97       -73.0713   29.2480  -78.5302 H         1 UNK         0.0855 
     98 H98       -71.9818   28.1505  -80.4569 H         1 UNK         0.0814 
     99 H99       -73.7060   28.3123  -80.7476 H         1 UNK         0.0814 
    100 H100      -73.0250   26.7480  -80.3013 H         1 UNK         0.0814 
    101 H101      -75.0480   28.6544  -77.8116 H         1 UNK         0.3105 
    102 H102      -76.8478   27.7167  -77.2661 H         1 UNK         0.0547 
    103 H103      -77.6434   26.7620  -79.4456 H         1 UNK         0.0837 
    104 H104      -77.4740   25.1361  -78.7944 H         1 UNK         0.0837 
    105 H105      -78.6505   26.2502  -78.0988 H         1 UNK         0.0837 
    106 H106      -77.4782   25.3146  -76.2020 H         1 UNK         0.3020 
    107 H107      -75.1116   24.8139  -73.6348 H         1 UNK         0.1245 
    108 H108      -78.0074   25.7144  -73.2600 H         1 UNK         0.0781 
    109 H109      -76.6973   26.8167  -72.9774 H         1 UNK         0.0781 
    110 H110      -77.8322   25.5728  -69.2999 H         1 UNK         0.0836 
    111 H111      -78.9426   25.3851  -70.6332 H         1 UNK         0.0836 
    112 H112      -77.7089   23.8216  -74.6677 H         1 UNK         0.3022 
    113 H113      -76.3337   20.9341  -76.0416 H         1 UNK         0.0747 
    114 H114      -77.5218   19.5275  -74.3624 H         1 UNK         0.0793 
    115 H115      -76.0079   20.1272  -73.7075 H         1 UNK         0.0793 
    116 H116      -77.5238   20.8673  -73.2136 H         1 UNK         0.0793 
    117 H117      -78.9714   21.6811  -75.0314 H         1 UNK         0.3047 
    118 H118      -79.9190   23.5167  -77.8866 H         1 UNK         0.0822 
    119 H119      -81.7708   21.8809  -78.0785 H         1 UNK         0.0807 
    120 H120      -80.8774   20.7072  -77.1101 H         1 UNK         0.0807 
    121 H121      -80.2882   21.1764  -78.6985 H         1 UNK         0.0807 
    122 H122      -81.5093   22.7152  -75.7174 H         1 UNK         0.2946 
    123 H123      -82.1460   24.4902  -74.2540 H         1 UNK         0.1144 
    124 H124      -80.9715   22.5878  -73.1187 H         1 UNK         0.0793 
    125 H125      -81.3456   23.8446  -71.9557 H         1 UNK         0.0793 
    126 H126      -79.7008   23.6702  -72.5670 H         1 UNK         0.0793 
    127 H127      -80.2883   26.0534  -72.7009 H         1 UNK         0.2896 
@<TRIPOS>BOND
     1    1    2 1    
     2    1   67 1    
     3    1   68 1    
     4    1   69 1    
     5    2    3 2    
     6    2    4 am   BACKBONE|DICT|INTERRES
     7    4    5 1    
     8    4   70 1    
     9    5    6 1    
    10    5   65 1    
    11    5   71 1    
    12    6    7 1    
    13    6   72 1    
    14    6   73 1    
    15    7    8 1    
    16    8    9 1    
    17    8   74 1    
    18    8   75 1    
    19    9   10 ar   
    20    9   14 ar   
    21   10   11 ar   
    22   10   76 1    
    23   11   12 ar   
    24   11   48 1    
    25   12   13 ar   
    26   12   77 1    
    27   13   14 ar   
    28   13   15 1    
    29   14   78 1    
    30   15   16 1    
    31   15   79 1    
    32   15   80 1    
    33   16   17 1    
    34   17   18 1    
    35   17   81 1    
    36   17   82 1    
    37   18   19 1    
    38   18   22 1    
    39   18   83 1    
    40   19   20 am   BACKBONE|DICT|INTERRES
    41   19   21 2    
    42   20   84 1    
    43   20   85 1    
    44   22   23 am   BACKBONE|DICT|INTERRES
    45   22   86 1    
    46   23   24 2    
    47   23   25 1    
    48   25   26 1    
    49   25   27 1    
    50   25   87 1    
    51   26   88 1    
    52   26   89 1    
    53   26   90 1    
    54   27   28 am   BACKBONE|DICT|INTERRES
    55   27   91 1    
    56   28   29 2    
    57   28   30 1    
    58   30   31 1    
    59   30   32 1    
    60   30   92 1    
    61   31   93 1    
    62   31   94 1    
    63   31   95 1    
    64   32   33 am   BACKBONE|DICT|INTERRES
    65   32   96 1    
    66   33   34 2    
    67   33   35 1    
    68   35   36 1    
    69   35   37 1    
    70   35   97 1    
    71   36   98 1    
    72   36   99 1    
    73   36  100 1    
    74   37   38 am   BACKBONE|DICT|INTERRES
    75   37  101 1    
    76   38   39 2    
    77   38   40 1    
    78   40   41 1    
    79   40   42 1    
    80   40  102 1    
    81   41  103 1    
    82   41  104 1    
    83   41  105 1    
    84   42   43 am   BACKBONE|DICT|INTERRES
    85   42  106 1    
    86   43   44 2    
    87   43   45 1    
    88   45   46 1    
    89   45   49 1    
    90   45  107 1    
    91   46   47 1    
    92   46  108 1    
    93   46  109 1    
    94   47   48 1    
    95   48  110 1    
    96   48  111 1    
    97   49   50 am   BACKBONE|DICT|INTERRES
    98   49  112 1    
    99   50   51 2    
   100   50   52 1    
   101   52   53 1    
   102   52   54 1    
   103   52  113 1    
   104   53  114 1    
   105   53  115 1    
   106   53  116 1    
   107   54   55 am   BACKBONE|DICT|INTERRES
   108   54  117 1    
   109   55   56 2    
   110   55   57 1    
   111   57   58 1    
   112   57   59 1    
   113   57  118 1    
   114   58  119 1    
   115   58  120 1    
   116   58  121 1    
   117   59   60 am   BACKBONE|DICT|INTERRES
   118   59  122 1    
   119   60   61 2    
   120   60   62 1    
   121   62   63 1    
   122   62   64 1    
   123   62  123 1    
   124   63  124 1    
   125   63  125 1    
   126   63  126 1    
   127   64   65 am   BACKBONE|DICT|INTERRES
   128   64  127 1    
   129   65   66 2    
@<TRIPOS>SUBSTRUCTURE
     1 UNK         1 GROUP             0       ****    0 ROOT    
