@<TRIPOS>MOLECULE
3R135
127   129    1
SMALL
USER_CHARGES


@<TRIPOS>ATOM
      1 CA        -85.4816   30.0553  -75.1438 C.3       0 UNK        -0.1998 
      2 C         -84.1266   29.4378  -75.4559 C.2       0 UNK         0.4909 
      3 O         -83.6254   29.5945  -76.5695 O.2       0 UNK        -0.5240 
      4 N         -83.5290   28.7418  -74.4790 N.am      1 UNK        -0.4739 
      5 CA        -82.2413   28.0483  -74.6096 C.3       1 UNK         0.0864 
      6 C6        -81.6917   27.6425  -73.2179 C.3       11 UNK        -0.0881 
      7 S7        -79.9275   27.1804  -73.2453 S.3       11 UNK        -0.2682 
      8 C8        -79.1678   28.6192  -72.4341 C.3       11 UNK         0.0289 
      9 C9        -77.6602   28.4518  -72.3355 C.ar      11 UNK        -0.0687 
     10 C10       -77.1198   27.5303  -71.4347 C.ar      11 UNK        -0.0823 
     11 C11       -75.7370   27.3449  -71.3505 C.ar      11 UNK        -0.0830 
     12 C12       -74.8904   28.1136  -72.1544 C.ar      11 UNK        -0.1021 
     13 C13       -75.4193   29.0407  -73.0579 C.ar      11 UNK        -0.0753 
     14 C14       -76.8053   29.2047  -73.1454 C.ar      11 UNK        -0.0933 
     15 C15       -74.4982   29.8342  -73.9716 C.3       11 UNK         0.0166 
     16 S16       -74.3386   31.5683  -73.4426 S.3       11 UNK        -0.2615 
     17 C17       -73.2290   31.4151  -71.9998 C.3       11 UNK        -0.0865 
     18 CA        -71.8430   32.0874  -72.2299 C.3       10 UNK         0.0862 
     19 C         -70.9906   32.1614  -70.9245 C.2       10 UNK         0.5551 
     20 N         -69.6670   32.0868  -70.9951 N.am      10 UNK        -0.7319 
     21 O         -71.5309   32.3238  -69.8328 O.2       10 UNK        -0.5018 
     22 N         -71.1254   31.5632  -73.4099 N.am      10 UNK        -0.4509 
     23 C         -70.6818   30.3104  -73.5726 C.2       10 UNK         0.4899 
     24 O         -70.8102   29.4137  -72.7359 O.2       10 UNK        -0.4839 
     25 CA        -69.9224   30.0307  -74.8815 C.3       9 UNK         0.0222 
     26 CB        -68.4329   30.3789  -74.7228 C.3       9 UNK        -0.1966 
     27 N         -70.0451   28.6252  -75.2718 N.am      9 UNK        -0.4218 
     28 C         -71.1461   28.0845  -75.8078 C.2       9 UNK         0.5020 
     29 O         -72.1265   28.7442  -76.1612 O.2       9 UNK        -0.5274 
     30 CA        -71.1390   26.5523  -75.9520 C.3       8 UNK         0.0270 
     31 CB        -71.0734   25.8699  -74.5723 C.3       8 UNK        -0.1976 
     32 N         -72.3371   26.0856  -76.6520 N.am      8 UNK        -0.4313 
     33 C         -72.4496   25.9780  -77.9838 C.2       8 UNK         0.5041 
     34 O         -71.5190   26.1953  -78.7623 O.2       8 UNK        -0.5577 
     35 CA        -73.8080   25.5348  -78.5645 C.3       7 UNK         0.0284 
     36 CB        -73.7344   24.0779  -79.0503 C.3       7 UNK        -0.1958 
     37 N         -74.9153   25.6674  -77.6156 N.am      7 UNK        -0.4454 
     38 C         -75.5134   26.8284  -77.3082 C.2       7 UNK         0.5089 
     39 O         -75.2722   27.8890  -77.8852 O.2       7 UNK        -0.5125 
     40 CA        -76.5505   26.8222  -76.1657 C.3       6 UNK         0.0408 
     41 CB        -77.9710   26.9478  -76.7352 C.3       6 UNK        -0.1791 
     42 N         -76.4845   25.6540  -75.2788 N.am      6 UNK        -0.4762 
     43 C         -75.4201   25.3180  -74.5304 C.2       6 UNK         0.5007 
     44 O         -74.3707   25.9589  -74.5353 O.2       6 UNK        -0.5032 
     45 CA        -75.4878   23.9971  -73.7282 C.3       5 UNK         0.0783 
     46 C46       -75.8416   24.2209  -72.2357 C.3       11 UNK        -0.0857 
     47 S47       -74.4329   24.8790  -71.2748 S.3       11 UNK        -0.2512 
     48 C48       -75.1632   26.3036  -70.3998 C.3       11 UNK         0.0225 
     49 N         -76.3736   23.0015  -74.3418 N.am      5 UNK        -0.4615 
     50 C         -76.2186   22.4806  -75.5676 C.2       4 UNK         0.5053 
     51 O         -75.2796   22.7615  -76.3124 O.2       4 UNK        -0.5105 
     52 CA        -77.3073   21.5118  -76.0642 C.3       4 UNK         0.0263 
     53 CB        -76.8507   20.0559  -75.8784 C.3       4 UNK        -0.1981 
     54 N         -78.6203   21.6930  -75.4303 N.am      4 UNK        -0.4224 
     55 C         -79.3653   22.8044  -75.5078 C.2       3 UNK         0.4895 
     56 O         -79.0037   23.8369  -76.0765 O.2       3 UNK        -0.5091 
     57 CA        -80.7196   22.7652  -74.7939 C.3       3 UNK         0.0250 
     58 CB        -80.5585   23.0869  -73.2970 C.3       3 UNK        -0.1996 
     59 N         -81.6070   23.7449  -75.4123 N.am      3 UNK        -0.4254 
     60 C         -82.9379   23.6527  -75.4999 C.2       2 UNK         0.5004 
     61 O         -83.5865   22.7118  -75.0375 O.2       2 UNK        -0.5226 
     62 CA        -83.6625   24.8264  -76.1906 C.3       2 UNK         0.0269 
     63 CB        -85.1796   24.5953  -76.3254 C.3       2 UNK        -0.1926 
     64 N         -83.4396   26.0795  -75.4652 N.am      2 UNK        -0.4687 
     65 C         -82.3349   26.8331  -75.5578 C.2       1 UNK         0.5165 
     66 O         -81.4184   26.5917  -76.3443 O.2       1 UNK        -0.5079 
     67 H67       -85.4394   31.1366  -75.2717 H         1 UNK         0.0900 
     68 H68       -85.8000   29.8471  -74.1225 H         1 UNK         0.0900 
     69 H69       -86.2381   29.6610  -75.8217 H         1 UNK         0.0900 
     70 H70       -83.9879   28.6583  -73.5826 H         1 UNK         0.2959 
     71 H71       -81.5389   28.7534  -75.0607 H         1 UNK         0.1079 
     72 H72       -81.8208   28.4662  -72.5139 H         1 UNK         0.0837 
     73 H73       -82.2609   26.8096  -72.8001 H         1 UNK         0.0837 
     74 H74       -79.4214   29.5230  -72.9905 H         1 UNK         0.0685 
     75 H75       -79.5859   28.7382  -71.4334 H         1 UNK         0.0685 
     76 H76       -77.7834   26.9403  -70.8174 H         1 UNK         0.1434 
     77 H77       -73.8205   27.9632  -72.1011 H         1 UNK         0.1329 
     78 H78       -77.2151   29.9138  -73.8515 H         1 UNK         0.1335 
     79 H79       -74.8873   29.8066  -74.9906 H         1 UNK         0.0680 
     80 H80       -73.5114   29.3730  -74.0125 H         1 UNK         0.0680 
     81 H81       -73.1043   30.3674  -71.7247 H         1 UNK         0.1032 
     82 H82       -73.7430   31.8803  -71.1569 H         1 UNK         0.1032 
     83 H83       -72.0411   33.1326  -72.4698 H         1 UNK         0.0461 
     84 H84       -69.1225   32.1472  -70.1491 H         1 UNK         0.3453 
     85 H85       -69.2101   31.9643  -71.8838 H         1 UNK         0.3453 
     86 H86       -70.9563   32.2357  -74.1442 H         1 UNK         0.2984 
     87 H87       -70.3432   30.6526  -75.6748 H         1 UNK         0.0554 
     88 H88       -67.8814   30.1940  -75.6449 H         1 UNK         0.0847 
     89 H89       -67.9632   29.7973  -73.9283 H         1 UNK         0.0847 
     90 H90       -68.3002   31.4331  -74.4763 H         1 UNK         0.0847 
     91 H91       -69.3007   28.0109  -74.9755 H         1 UNK         0.3141 
     92 H92       -70.2526   26.2653  -76.5217 H         1 UNK         0.0743 
     93 H93       -70.1162   26.0547  -74.0839 H         1 UNK         0.0784 
     94 H94       -71.8512   26.2371  -73.9013 H         1 UNK         0.0784 
     95 H95       -71.1868   24.7889  -74.6556 H         1 UNK         0.0784 
     96 H96       -73.1667   25.9799  -76.0740 H         1 UNK         0.3213 
     97 H97       -74.0149   26.1691  -79.4293 H         1 UNK         0.0855 
     98 H98       -73.4863   23.3940  -78.2378 H         1 UNK         0.0814 
     99 H99       -72.9676   23.9615  -79.8174 H         1 UNK         0.0814 
    100 H100      -74.6798   23.7539  -79.4857 H         1 UNK         0.0814 
    101 H101      -75.1724   24.8350  -77.0971 H         1 UNK         0.3105 
    102 H102      -76.3534   27.7028  -75.5533 H         1 UNK         0.0547 
    103 H103      -78.0728   27.8484  -77.3419 H         1 UNK         0.0837 
    104 H104      -78.2296   26.0978  -77.3674 H         1 UNK         0.0837 
    105 H105      -78.7136   27.0102  -75.9410 H         1 UNK         0.0837 
    106 H106      -77.2959   25.0465  -75.2782 H         1 UNK         0.3020 
    107 H107      -74.4842   23.5668  -73.7726 H         1 UNK         0.1245 
    108 H108      -76.1094   23.2710  -71.7704 H         1 UNK         0.0781 
    109 H109      -76.7229   24.8551  -72.1340 H         1 UNK         0.0781 
    110 H110      -74.3940   26.7693  -69.7822 H         1 UNK         0.0836 
    111 H111      -75.9280   25.9418  -69.7109 H         1 UNK         0.0836 
    112 H112      -77.1766   22.7165  -73.8020 H         1 UNK         0.3022 
    113 H113      -77.4329   21.6960  -77.1333 H         1 UNK         0.0747 
    114 H114      -77.5615   19.3565  -76.3191 H         1 UNK         0.0793 
    115 H115      -75.8885   19.8836  -76.3633 H         1 UNK         0.0793 
    116 H116      -76.7345   19.7999  -74.8244 H         1 UNK         0.0793 
    117 H117      -78.9891   20.8970  -74.9290 H         1 UNK         0.3047 
    118 H118      -81.1431   21.7653  -74.9124 H         1 UNK         0.0822 
    119 H119      -81.5187   23.0641  -72.7813 H         1 UNK         0.0807 
    120 H120      -80.1220   24.0748  -73.1435 H         1 UNK         0.0807 
    121 H121      -79.9107   22.3614  -72.8037 H         1 UNK         0.0807 
    122 H122      -81.1369   24.5423  -75.8331 H         1 UNK         0.2946 
    123 H123      -83.2487   24.9141  -77.1981 H         1 UNK         0.1144 
    124 H124      -85.6591   25.4156  -76.8600 H         1 UNK         0.0793 
    125 H125      -85.6637   24.5003  -75.3526 H         1 UNK         0.0793 
    126 H126      -85.3872   23.6817  -76.8843 H         1 UNK         0.0793 
    127 H127      -84.1417   26.3416  -74.7886 H         1 UNK         0.2896 
@<TRIPOS>BOND
     1    1    2 1    
     2    1   67 1    
     3    1   68 1    
     4    1   69 1    
     5    2    3 2    
     6    2    4 am   BACKBONE|DICT|INTERRES
     7    4    5 1    
     8    4   70 1    
     9    5    6 1    
    10    5   65 1    
    11    5   71 1    
    12    6    7 1    
    13    6   72 1    
    14    6   73 1    
    15    7    8 1    
    16    8    9 1    
    17    8   74 1    
    18    8   75 1    
    19    9   10 ar   
    20    9   14 ar   
    21   10   11 ar   
    22   10   76 1    
    23   11   12 ar   
    24   11   48 1    
    25   12   13 ar   
    26   12   77 1    
    27   13   14 ar   
    28   13   15 1    
    29   14   78 1    
    30   15   16 1    
    31   15   79 1    
    32   15   80 1    
    33   16   17 1    
    34   17   18 1    
    35   17   81 1    
    36   17   82 1    
    37   18   19 1    
    38   18   22 1    
    39   18   83 1    
    40   19   20 am   BACKBONE|DICT|INTERRES
    41   19   21 2    
    42   20   84 1    
    43   20   85 1    
    44   22   23 am   BACKBONE|DICT|INTERRES
    45   22   86 1    
    46   23   24 2    
    47   23   25 1    
    48   25   26 1    
    49   25   27 1    
    50   25   87 1    
    51   26   88 1    
    52   26   89 1    
    53   26   90 1    
    54   27   28 am   BACKBONE|DICT|INTERRES
    55   27   91 1    
    56   28   29 2    
    57   28   30 1    
    58   30   31 1    
    59   30   32 1    
    60   30   92 1    
    61   31   93 1    
    62   31   94 1    
    63   31   95 1    
    64   32   33 am   BACKBONE|DICT|INTERRES
    65   32   96 1    
    66   33   34 2    
    67   33   35 1    
    68   35   36 1    
    69   35   37 1    
    70   35   97 1    
    71   36   98 1    
    72   36   99 1    
    73   36  100 1    
    74   37   38 am   BACKBONE|DICT|INTERRES
    75   37  101 1    
    76   38   39 2    
    77   38   40 1    
    78   40   41 1    
    79   40   42 1    
    80   40  102 1    
    81   41  103 1    
    82   41  104 1    
    83   41  105 1    
    84   42   43 am   BACKBONE|DICT|INTERRES
    85   42  106 1    
    86   43   44 2    
    87   43   45 1    
    88   45   46 1    
    89   45   49 1    
    90   45  107 1    
    91   46   47 1    
    92   46  108 1    
    93   46  109 1    
    94   47   48 1    
    95   48  110 1    
    96   48  111 1    
    97   49   50 am   BACKBONE|DICT|INTERRES
    98   49  112 1    
    99   50   51 2    
   100   50   52 1    
   101   52   53 1    
   102   52   54 1    
   103   52  113 1    
   104   53  114 1    
   105   53  115 1    
   106   53  116 1    
   107   54   55 am   BACKBONE|DICT|INTERRES
   108   54  117 1    
   109   55   56 2    
   110   55   57 1    
   111   57   58 1    
   112   57   59 1    
   113   57  118 1    
   114   58  119 1    
   115   58  120 1    
   116   58  121 1    
   117   59   60 am   BACKBONE|DICT|INTERRES
   118   59  122 1    
   119   60   61 2    
   120   60   62 1    
   121   62   63 1    
   122   62   64 1    
   123   62  123 1    
   124   63  124 1    
   125   63  125 1    
   126   63  126 1    
   127   64   65 am   BACKBONE|DICT|INTERRES
   128   64  127 1    
   129   65   66 2    
@<TRIPOS>SUBSTRUCTURE
     1 UNK         1 GROUP             0       ****    0 ROOT    
