@<TRIPOS>MOLECULE
3R135
127   129    1
SMALL
USER_CHARGES


@<TRIPOS>ATOM
      1 CA        -83.6523   24.8529  -69.9336 C.3       0 UNK        -0.1998 
      2 C         -83.3261   25.9830  -70.8985 C.2       0 UNK         0.4909 
      3 O         -83.6798   27.1333  -70.6378 O.2       0 UNK        -0.5240 
      4 N         -82.6568   25.6651  -72.0101 N.am      1 UNK        -0.4739 
      5 CA        -82.2839   26.5918  -73.0771 C.3       1 UNK         0.0864 
      6 C6        -81.0468   27.4527  -72.7052 C.3       11 UNK        -0.0881 
      7 S7        -80.9956   29.0425  -73.6028 S.3       11 UNK        -0.2682 
      8 C8        -80.0807   30.0953  -72.4315 C.3       11 UNK         0.0289 
      9 C9        -78.6234   29.6719  -72.3198 C.ar      11 UNK        -0.0687 
     10 C10       -78.2350   28.7376  -71.3568 C.ar      11 UNK        -0.0823 
     11 C11       -76.9058   28.3157  -71.2695 C.ar      11 UNK        -0.0830 
     12 C12       -75.9535   28.8578  -72.1384 C.ar      11 UNK        -0.1021 
     13 C13       -76.3259   29.8108  -73.0922 C.ar      11 UNK        -0.0753 
     14 C14       -77.6633   30.2093  -73.1815 C.ar      11 UNK        -0.0933 
     15 C15       -75.2987   30.3920  -74.0515 C.3       11 UNK         0.0166 
     16 S16       -74.5343   31.9073  -73.3944 S.3       11 UNK        -0.2615 
     17 C17       -73.1203   31.2371  -72.4525 C.3       11 UNK        -0.0865 
     18 CA        -71.7882   31.3439  -73.2394 C.3       10 UNK         0.0862 
     19 C         -70.5930   30.8887  -72.3618 C.2       10 UNK         0.5551 
     20 N         -69.8077   31.8226  -71.8436 N.am      10 UNK        -0.7319 
     21 O         -70.4057   29.7003  -72.1098 O.2       10 UNK        -0.5018 
     22 N         -71.8493   30.5877  -74.4961 N.am      10 UNK        -0.4509 
     23 C         -71.0223   30.7410  -75.5358 C.2       10 UNK         0.4899 
     24 O         -70.1219   31.5812  -75.5804 O.2       10 UNK        -0.4839 
     25 CA        -71.2705   29.7982  -76.7307 C.3       9 UNK         0.0222 
     26 CB        -70.1343   29.8275  -77.7755 C.3       9 UNK        -0.1966 
     27 N         -71.5731   28.4219  -76.3149 N.am      9 UNK        -0.4218 
     28 C         -70.7709   27.5885  -75.6280 C.2       9 UNK         0.5020 
     29 O         -69.6247   27.8712  -75.2768 O.2       9 UNK        -0.5274 
     30 CA        -71.3324   26.2026  -75.2519 C.3       8 UNK         0.0270 
     31 CB        -71.6829   26.1632  -73.7548 C.3       8 UNK        -0.1976 
     32 N         -72.5082   25.8139  -76.0366 N.am      8 UNK        -0.4313 
     33 C         -72.4732   25.4830  -77.3379 C.2       8 UNK         0.5041 
     34 O         -71.4270   25.3703  -77.9780 O.2       8 UNK        -0.5577 
     35 CA        -73.8136   25.2645  -78.0696 C.3       7 UNK         0.0284 
     36 CB        -74.0459   23.7683  -78.3328 C.3       7 UNK        -0.1958 
     37 N         -74.9823   25.8159  -77.3782 N.am      7 UNK        -0.4454 
     38 C         -75.1835   27.1114  -77.0957 C.2       7 UNK         0.5089 
     39 O         -74.4105   28.0125  -77.4239 O.2       7 UNK        -0.5125 
     40 CA        -76.4129   27.4484  -76.2327 C.3       6 UNK         0.0408 
     41 CB        -77.5866   27.8970  -77.1149 C.3       6 UNK        -0.1791 
     42 N         -76.8397   26.3656  -75.3333 N.am      6 UNK        -0.4762 
     43 C         -76.0660   25.8361  -74.3693 C.2       6 UNK         0.5007 
     44 O         -74.8894   26.1646  -74.2120 O.2       6 UNK        -0.5032 
     45 CA        -76.6457   24.7204  -73.4778 C.3       5 UNK         0.0783 
     46 C46       -77.2177   25.2427  -72.1360 C.3       11 UNK        -0.0857 
     47 S47       -75.8911   25.7227  -70.9722 S.3       11 UNK        -0.2512 
     48 C48       -76.5123   27.2701  -70.2341 C.3       11 UNK         0.0225 
     49 N         -77.6060   23.8836  -74.2031 N.am      5 UNK        -0.4615 
     50 C         -77.6453   22.5460  -74.1111 C.2       4 UNK         0.5053 
     51 O         -76.9347   21.8948  -73.3445 O.2       4 UNK        -0.5105 
     52 CA        -78.6231   21.7848  -75.0287 C.3       4 UNK         0.0263 
     53 CB        -79.8928   21.3976  -74.2537 C.3       4 UNK        -0.1981 
     54 N         -79.0051   22.5229  -76.2335 N.am      4 UNK        -0.4224 
     55 C         -78.1664   22.9198  -77.2013 C.2       3 UNK         0.4895 
     56 O         -76.9761   22.6113  -77.2407 O.2       3 UNK        -0.5091 
     57 CA        -78.7273   23.8560  -78.2896 C.3       3 UNK         0.0250 
     58 CB        -78.8817   23.0985  -79.6182 C.3       3 UNK        -0.1996 
     59 N         -79.9992   24.5187  -77.9655 N.am      3 UNK        -0.4254 
     60 C         -80.2389   25.3035  -76.9047 C.2       2 UNK         0.5004 
     61 O         -79.4045   25.5154  -76.0191 O.2       2 UNK        -0.5226 
     62 CA        -81.6322   25.9618  -76.8333 C.3       2 UNK         0.0269 
     63 CB        -82.7668   25.0420  -77.3407 C.3       2 UNK        -0.1926 
     64 N         -81.9418   26.4768  -75.4939 N.am      2 UNK        -0.4687 
     65 C         -82.0602   25.7718  -74.3604 C.2       1 UNK         0.5165 
     66 O         -81.9912   24.5395  -74.2974 O.2       1 UNK        -0.5079 
     67 H67       -83.2063   25.0511  -68.9593 H         1 UNK         0.0900 
     68 H68       -84.7310   24.7691  -69.8044 H         1 UNK         0.0900 
     69 H69       -83.2775   23.8931  -70.2889 H         1 UNK         0.0900 
     70 H70       -82.4297   24.7006  -72.2245 H         1 UNK         0.2959 
     71 H71       -83.1425   27.2435  -73.2562 H         1 UNK         0.1079 
     72 H72       -81.0701   27.6816  -71.6394 H         1 UNK         0.0837 
     73 H73       -80.1150   26.9099  -72.8742 H         1 UNK         0.0837 
     74 H74       -80.1395   31.1307  -72.7704 H         1 UNK         0.0685 
     75 H75       -80.5651   30.0686  -71.4541 H         1 UNK         0.0685 
     76 H76       -78.9742   28.3247  -70.6847 H         1 UNK         0.1434 
     77 H77       -74.9281   28.5204  -72.0800 H         1 UNK         0.1329 
     78 H78       -77.9592   30.9343  -73.9274 H         1 UNK         0.1335 
     79 H79       -74.5359   29.6486  -74.2851 H         1 UNK         0.0680 
     80 H80       -75.7795   30.6361  -75.0001 H         1 UNK         0.0680 
     81 H81       -73.0524   31.8038  -71.5218 H         1 UNK         0.1032 
     82 H82       -73.3165   30.2056  -72.1574 H         1 UNK         0.1032 
     83 H83       -71.6413   32.3950  -73.4980 H         1 UNK         0.0461 
     84 H84       -69.9604   32.7998  -72.0403 H         1 UNK         0.3453 
     85 H85       -69.0368   31.5446  -71.2565 H         1 UNK         0.3453 
     86 H86       -72.5315   29.8478  -74.5350 H         1 UNK         0.2984 
     87 H87       -72.1726   30.1661  -77.2218 H         1 UNK         0.0554 
     88 H88       -70.3475   29.1621  -78.6120 H         1 UNK         0.0847 
     89 H89       -69.1778   29.5296  -77.3450 H         1 UNK         0.0847 
     90 H90       -70.0063   30.8304  -78.1846 H         1 UNK         0.0847 
     91 H91       -72.4960   28.0889  -76.5757 H         1 UNK         0.3141 
     92 H92       -70.5448   25.4689  -75.4363 H         1 UNK         0.0743 
     93 H93       -72.4293   26.9147  -73.4943 H         1 UNK         0.0784 
     94 H94       -72.0710   25.1881  -73.4598 H         1 UNK         0.0784 
     95 H95       -70.8014   26.3609  -73.1432 H         1 UNK         0.0784 
     96 H96       -73.4054   25.8807  -75.5641 H         1 UNK         0.3213 
     97 H97       -73.7350   25.7727  -79.0330 H         1 UNK         0.0855 
     98 H98       -74.1665   23.2092  -77.4039 H         1 UNK         0.0814 
     99 H99       -73.2046   23.3292  -78.8710 H         1 UNK         0.0814 
    100 H100      -74.9362   23.6048  -78.9404 H         1 UNK         0.0814 
    101 H101      -75.6604   25.1495  -77.0370 H         1 UNK         0.3105 
    102 H102      -76.1366   28.2899  -75.6000 H         1 UNK         0.0547 
    103 H103      -77.3077   28.7568  -77.7254 H         1 UNK         0.0837 
    104 H104      -77.9067   27.1070  -77.7941 H         1 UNK         0.0837 
    105 H105      -78.4451   28.1940  -76.5117 H         1 UNK         0.0837 
    106 H106      -77.8055   26.0606  -75.4422 H         1 UNK         0.3020 
    107 H107      -75.7815   24.0949  -73.2395 H         1 UNK         0.1245 
    108 H108      -77.7971   24.4585  -71.6465 H         1 UNK         0.0781 
    109 H109      -77.9150   26.0620  -72.3081 H         1 UNK         0.0781 
    110 H110      -75.7391   27.6857  -69.5866 H         1 UNK         0.0836 
    111 H111      -77.3552   27.0298  -69.5841 H         1 UNK         0.0836 
    112 H112      -78.2381   24.3507  -74.8448 H         1 UNK         0.3022 
    113 H113      -78.1219   20.8688  -75.3484 H         1 UNK         0.0747 
    114 H114      -80.5621   20.7902  -74.8632 H         1 UNK         0.0793 
    115 H115      -79.6459   20.8136  -73.3658 H         1 UNK         0.0793 
    116 H116      -80.4454   22.2774  -73.9213 H         1 UNK         0.0793 
    117 H117      -79.9606   22.8463  -76.2778 H         1 UNK         0.3047 
    118 H118      -77.9845   24.6430  -78.4337 H         1 UNK         0.0822 
    119 H119      -79.1625   23.7702  -80.4296 H         1 UNK         0.0807 
    120 H120      -79.6386   22.3160  -79.5504 H         1 UNK         0.0807 
    121 H121      -77.9446   22.6207  -79.9084 H         1 UNK         0.0807 
    122 H122      -80.7442   24.3917  -78.6354 H         1 UNK         0.2946 
    123 H123      -81.5866   26.8331  -77.4887 H         1 UNK         0.1144 
    124 H124      -83.7430   25.5042  -77.1929 H         1 UNK         0.0793 
    125 H125      -82.7754   24.0808  -76.8253 H         1 UNK         0.0793 
    126 H126      -82.6750   24.8418  -78.4085 H         1 UNK         0.0793 
    127 H127      -81.9482   27.4851  -75.4103 H         1 UNK         0.2896 
@<TRIPOS>BOND
     1    1    2 1    
     2    1   67 1    
     3    1   68 1    
     4    1   69 1    
     5    2    3 2    
     6    2    4 am   BACKBONE|DICT|INTERRES
     7    4    5 1    
     8    4   70 1    
     9    5    6 1    
    10    5   65 1    
    11    5   71 1    
    12    6    7 1    
    13    6   72 1    
    14    6   73 1    
    15    7    8 1    
    16    8    9 1    
    17    8   74 1    
    18    8   75 1    
    19    9   10 ar   
    20    9   14 ar   
    21   10   11 ar   
    22   10   76 1    
    23   11   12 ar   
    24   11   48 1    
    25   12   13 ar   
    26   12   77 1    
    27   13   14 ar   
    28   13   15 1    
    29   14   78 1    
    30   15   16 1    
    31   15   79 1    
    32   15   80 1    
    33   16   17 1    
    34   17   18 1    
    35   17   81 1    
    36   17   82 1    
    37   18   19 1    
    38   18   22 1    
    39   18   83 1    
    40   19   20 am   BACKBONE|DICT|INTERRES
    41   19   21 2    
    42   20   84 1    
    43   20   85 1    
    44   22   23 am   BACKBONE|DICT|INTERRES
    45   22   86 1    
    46   23   24 2    
    47   23   25 1    
    48   25   26 1    
    49   25   27 1    
    50   25   87 1    
    51   26   88 1    
    52   26   89 1    
    53   26   90 1    
    54   27   28 am   BACKBONE|DICT|INTERRES
    55   27   91 1    
    56   28   29 2    
    57   28   30 1    
    58   30   31 1    
    59   30   32 1    
    60   30   92 1    
    61   31   93 1    
    62   31   94 1    
    63   31   95 1    
    64   32   33 am   BACKBONE|DICT|INTERRES
    65   32   96 1    
    66   33   34 2    
    67   33   35 1    
    68   35   36 1    
    69   35   37 1    
    70   35   97 1    
    71   36   98 1    
    72   36   99 1    
    73   36  100 1    
    74   37   38 am   BACKBONE|DICT|INTERRES
    75   37  101 1    
    76   38   39 2    
    77   38   40 1    
    78   40   41 1    
    79   40   42 1    
    80   40  102 1    
    81   41  103 1    
    82   41  104 1    
    83   41  105 1    
    84   42   43 am   BACKBONE|DICT|INTERRES
    85   42  106 1    
    86   43   44 2    
    87   43   45 1    
    88   45   46 1    
    89   45   49 1    
    90   45  107 1    
    91   46   47 1    
    92   46  108 1    
    93   46  109 1    
    94   47   48 1    
    95   48  110 1    
    96   48  111 1    
    97   49   50 am   BACKBONE|DICT|INTERRES
    98   49  112 1    
    99   50   51 2    
   100   50   52 1    
   101   52   53 1    
   102   52   54 1    
   103   52  113 1    
   104   53  114 1    
   105   53  115 1    
   106   53  116 1    
   107   54   55 am   BACKBONE|DICT|INTERRES
   108   54  117 1    
   109   55   56 2    
   110   55   57 1    
   111   57   58 1    
   112   57   59 1    
   113   57  118 1    
   114   58  119 1    
   115   58  120 1    
   116   58  121 1    
   117   59   60 am   BACKBONE|DICT|INTERRES
   118   59  122 1    
   119   60   61 2    
   120   60   62 1    
   121   62   63 1    
   122   62   64 1    
   123   62  123 1    
   124   63  124 1    
   125   63  125 1    
   126   63  126 1    
   127   64   65 am   BACKBONE|DICT|INTERRES
   128   64  127 1    
   129   65   66 2    
@<TRIPOS>SUBSTRUCTURE
     1 UNK         1 GROUP             0       ****    0 ROOT    
