@<TRIPOS>MOLECULE
3R135
127   129    1
SMALL
USER_CHARGES


@<TRIPOS>ATOM
      1 CA        -84.8356   26.0337  -71.4667 C.3       0 UNK        -0.1998 
      2 C         -84.4383   25.0023  -72.5193 C.2       0 UNK         0.4909 
      3 O         -85.2662   24.1758  -72.8979 O.2       0 UNK        -0.5240 
      4 N         -83.1981   25.0048  -73.0242 N.am      1 UNK        -0.4739 
      5 CA        -82.1124   25.9317  -72.6929 C.3       1 UNK         0.0864 
      6 C6        -81.3064   25.4718  -71.4441 C.3       11 UNK        -0.0881 
      7 S7        -80.5974   26.8710  -70.5037 S.3       11 UNK        -0.2682 
      8 C8        -78.7991   26.5612  -70.6260 C.3       11 UNK         0.0289 
      9 C9        -77.9849   27.7876  -71.0253 C.ar      11 UNK        -0.0687 
     10 C10       -78.4438   28.6594  -72.0175 C.ar      11 UNK        -0.0823 
     11 C11       -77.6639   29.7396  -72.4368 C.ar      11 UNK        -0.0830 
     12 C12       -76.4140   29.9534  -71.8530 C.ar      11 UNK        -0.1021 
     13 C13       -75.9378   29.0884  -70.8648 C.ar      11 UNK        -0.0753 
     14 C14       -76.7277   28.0101  -70.4513 C.ar      11 UNK        -0.0933 
     15 C15       -74.5563   29.3121  -70.2728 C.3       11 UNK         0.0166 
     16 S16       -73.3003   28.4104  -71.2308 S.3       11 UNK        -0.2615 
     17 C17       -71.8702   29.5395  -71.1179 C.3       11 UNK        -0.0865 
     18 CA        -71.7426   30.4604  -72.3616 C.3       10 UNK         0.0862 
     19 C         -70.6174   31.5169  -72.1601 C.2       10 UNK         0.5551 
     20 N         -69.5644   31.5336  -72.9686 N.am      10 UNK        -0.7319 
     21 O         -70.7069   32.3415  -71.2538 O.2       10 UNK        -0.5018 
     22 N         -71.6318   29.6779  -73.6036 N.am      10 UNK        -0.4509 
     23 C         -71.9376   30.1093  -74.8319 C.2       10 UNK         0.4899 
     24 O         -72.3439   31.2469  -75.0703 O.2       10 UNK        -0.4839 
     25 CA        -71.7843   29.1147  -76.0013 C.3       9 UNK         0.0222 
     26 CB        -70.4321   29.3006  -76.7176 C.3       9 UNK        -0.1966 
     27 N         -72.0311   27.7036  -75.6567 N.am      9 UNK        -0.4218 
     28 C         -71.2983   26.8895  -74.8815 C.2       9 UNK         0.5020 
     29 O         -70.2536   27.2356  -74.3284 O.2       9 UNK        -0.5274 
     30 CA        -71.8259   25.4711  -74.6196 C.3       8 UNK         0.0270 
     31 CB        -72.4956   25.4043  -73.2375 C.3       8 UNK        -0.1976 
     32 N         -72.7672   24.9854  -75.6313 N.am      8 UNK        -0.4313 
     33 C         -72.4011   24.3929  -76.7755 C.2       8 UNK         0.5041 
     34 O         -71.2320   24.2939  -77.1512 O.2       8 UNK        -0.5577 
     35 CA        -73.5199   23.7706  -77.6282 C.3       7 UNK         0.0284 
     36 CB        -74.0626   22.4914  -76.9696 C.3       7 UNK        -0.1958 
     37 N         -74.6223   24.6966  -77.8845 N.am      7 UNK        -0.4454 
     38 C         -74.5577   25.7254  -78.7401 C.2       7 UNK         0.5089 
     39 O         -73.5692   25.9888  -79.4255 O.2       7 UNK        -0.5125 
     40 CA        -75.8065   26.6182  -78.8511 C.3       6 UNK         0.0408 
     41 CB        -76.7993   26.0357  -79.8689 C.3       6 UNK        -0.1791 
     42 N         -76.4905   26.8281  -77.5740 N.am      6 UNK        -0.4762 
     43 C         -75.9486   27.4297  -76.5044 C.2       6 UNK         0.5007 
     44 O         -74.8006   27.8711  -76.4721 O.2       6 UNK        -0.5032 
     45 CA        -76.8288   27.4947  -75.2415 C.3       5 UNK         0.0783 
     46 C46       -77.9595   28.5435  -75.4167 C.3       11 UNK        -0.0857 
     47 S47       -77.3788   30.2506  -75.1386 S.3       11 UNK        -0.2512 
     48 C48       -78.1576   30.6563  -73.5441 C.3       11 UNK         0.0225 
     49 N         -77.3468   26.1686  -74.8770 N.am      5 UNK        -0.4615 
     50 C         -76.5997   25.0735  -74.6653 C.2       4 UNK         0.5053 
     51 O         -75.3711   25.0709  -74.6684 O.2       4 UNK        -0.5105 
     52 CA        -77.3319   23.7335  -74.4968 C.3       4 UNK         0.0263 
     53 CB        -77.7212   23.4723  -73.0364 C.3       4 UNK        -0.1981 
     54 N         -78.5134   23.6430  -75.3517 N.am      4 UNK        -0.4224 
     55 C         -78.4681   23.5021  -76.6833 C.2       3 UNK         0.4895 
     56 O         -77.4267   23.3632  -77.3259 O.2       3 UNK        -0.5091 
     57 CA        -79.8158   23.5770  -77.4195 C.3       3 UNK         0.0250 
     58 CB        -80.5537   22.2306  -77.3482 C.3       3 UNK        -0.1996 
     59 N         -80.6782   24.6446  -76.9005 N.am      3 UNK        -0.4254 
     60 C         -80.3917   25.9500  -77.0023 C.2       2 UNK         0.5004 
     61 O         -79.3889   26.3851  -77.5687 O.2       2 UNK        -0.5226 
     62 CA        -81.3694   26.9393  -76.3456 C.3       2 UNK         0.0269 
     63 CB        -82.4981   27.3013  -77.3240 C.3       2 UNK        -0.1926 
     64 N         -81.9528   26.4954  -75.0718 N.am      2 UNK        -0.4687 
     65 C         -81.2682   26.1841  -73.9593 C.2       1 UNK         0.5165 
     66 O         -80.0421   26.0812  -73.9272 O.2       1 UNK        -0.5079 
     67 H67       -85.7828   25.7589  -71.0030 H         1 UNK         0.0900 
     68 H68       -84.9597   27.0157  -71.9222 H         1 UNK         0.0900 
     69 H69       -84.0925   26.1061  -70.6736 H         1 UNK         0.0900 
     70 H70       -82.9643   24.3113  -73.7215 H         1 UNK         0.2959 
     71 H71       -82.5532   26.9054  -72.4705 H         1 UNK         0.1079 
     72 H72       -81.9644   24.9504  -70.7478 H         1 UNK         0.0837 
     73 H73       -80.5479   24.7344  -71.7057 H         1 UNK         0.0837 
     74 H74       -78.4549   26.1661  -69.6691 H         1 UNK         0.0685 
     75 H75       -78.5962   25.7928  -71.3667 H         1 UNK         0.0685 
     76 H76       -79.4025   28.4801  -72.4833 H         1 UNK         0.1434 
     77 H77       -75.7998   30.7784  -72.1883 H         1 UNK         0.1329 
     78 H78       -76.3496   27.3302  -69.7000 H         1 UNK         0.1335 
     79 H79       -74.3315   30.3799  -70.2678 H         1 UNK         0.0680 
     80 H80       -74.5252   28.9838  -69.2328 H         1 UNK         0.0680 
     81 H81       -71.9509   30.1269  -70.2011 H         1 UNK         0.1032 
     82 H82       -70.9685   28.9350  -71.0043 H         1 UNK         0.1032 
     83 H83       -72.6690   31.0343  -72.4293 H         1 UNK         0.0461 
     84 H84       -68.8438   32.2246  -72.8310 H         1 UNK         0.3453 
     85 H85       -69.4860   30.8596  -73.7130 H         1 UNK         0.3453 
     86 H86       -71.2422   28.7457  -73.5188 H         1 UNK         0.2984 
     87 H87       -72.5635   29.3718  -76.7202 H         1 UNK         0.0554 
     88 H88       -70.3496   28.6442  -77.5839 H         1 UNK         0.0847 
     89 H89       -69.5864   29.0972  -76.0605 H         1 UNK         0.0847 
     90 H90       -70.3214   30.3249  -77.0759 H         1 UNK         0.0847 
     91 H91       -72.9251   27.3558  -75.9923 H         1 UNK         0.3141 
     92 H92       -70.9608   24.8046  -74.5994 H         1 UNK         0.0743 
     93 H93       -71.8048   25.7104  -72.4506 H         1 UNK         0.0784 
     94 H94       -73.3643   26.0612  -73.1802 H         1 UNK         0.0784 
     95 H95       -72.8264   24.3923  -73.0038 H         1 UNK         0.0784 
     96 H96       -73.7570   25.0216  -75.3813 H         1 UNK         0.3213 
     97 H97       -73.0847   23.4889  -78.5898 H         1 UNK         0.0855 
     98 H98       -74.5224   22.6954  -76.0026 H         1 UNK         0.0814 
     99 H99       -73.2623   21.7690  -76.8040 H         1 UNK         0.0814 
    100 H100      -74.8108   22.0086  -77.5987 H         1 UNK         0.0814 
    101 H101      -75.4929   24.5298  -77.3940 H         1 UNK         0.3105 
    102 H102      -75.4822   27.5959  -79.2131 H         1 UNK         0.0547 
    103 H103      -77.6501   26.7007  -80.0183 H         1 UNK         0.0837 
    104 H104      -76.3247   25.8918  -80.8405 H         1 UNK         0.0837 
    105 H105      -77.1860   25.0680  -79.5468 H         1 UNK         0.0837 
    106 H106      -77.4580   26.5170  -77.5165 H         1 UNK         0.3020 
    107 H107      -76.1896   27.8046  -74.4109 H         1 UNK         0.1245 
    108 H108      -78.7813   28.3356  -74.7339 H         1 UNK         0.0781 
    109 H109      -78.4034   28.4992  -76.4119 H         1 UNK         0.0781 
    110 H110      -77.9300   31.6927  -73.2906 H         1 UNK         0.0836 
    111 H111      -79.2428   30.5980  -73.6432 H         1 UNK         0.0836 
    112 H112      -78.3542   26.0896  -74.7716 H         1 UNK         0.3022 
    113 H113      -76.6351   22.9476  -74.7954 H         1 UNK         0.0747 
    114 H114      -77.9993   22.4291  -72.8863 H         1 UNK         0.0793 
    115 H115      -78.5687   24.0834  -72.7383 H         1 UNK         0.0793 
    116 H116      -76.8945   23.6895  -72.3583 H         1 UNK         0.0793 
    117 H117      -79.4076   23.8069  -74.9128 H         1 UNK         0.3047 
    118 H118      -79.6049   23.7952  -78.4689 H         1 UNK         0.0822 
    119 H119      -79.9322   21.4254  -77.7429 H         1 UNK         0.0807 
    120 H120      -81.4697   22.2490  -77.9391 H         1 UNK         0.0807 
    121 H121      -80.8195   21.9648  -76.3243 H         1 UNK         0.0807 
    122 H122      -81.5295   24.3714  -76.4321 H         1 UNK         0.2946 
    123 H123      -80.8049   27.8502  -76.1385 H         1 UNK         0.1144 
    124 H124      -82.0937   27.6546  -78.2739 H         1 UNK         0.0793 
    125 H125      -83.1275   28.0983  -76.9277 H         1 UNK         0.0793 
    126 H126      -83.1368   26.4441  -77.5405 H         1 UNK         0.0793 
    127 H127      -82.9611   26.5233  -75.0108 H         1 UNK         0.2896 
@<TRIPOS>BOND
     1    1    2 1    
     2    1   67 1    
     3    1   68 1    
     4    1   69 1    
     5    2    3 2    
     6    2    4 am   BACKBONE|DICT|INTERRES
     7    4    5 1    
     8    4   70 1    
     9    5    6 1    
    10    5   65 1    
    11    5   71 1    
    12    6    7 1    
    13    6   72 1    
    14    6   73 1    
    15    7    8 1    
    16    8    9 1    
    17    8   74 1    
    18    8   75 1    
    19    9   10 ar   
    20    9   14 ar   
    21   10   11 ar   
    22   10   76 1    
    23   11   12 ar   
    24   11   48 1    
    25   12   13 ar   
    26   12   77 1    
    27   13   14 ar   
    28   13   15 1    
    29   14   78 1    
    30   15   16 1    
    31   15   79 1    
    32   15   80 1    
    33   16   17 1    
    34   17   18 1    
    35   17   81 1    
    36   17   82 1    
    37   18   19 1    
    38   18   22 1    
    39   18   83 1    
    40   19   20 am   BACKBONE|DICT|INTERRES
    41   19   21 2    
    42   20   84 1    
    43   20   85 1    
    44   22   23 am   BACKBONE|DICT|INTERRES
    45   22   86 1    
    46   23   24 2    
    47   23   25 1    
    48   25   26 1    
    49   25   27 1    
    50   25   87 1    
    51   26   88 1    
    52   26   89 1    
    53   26   90 1    
    54   27   28 am   BACKBONE|DICT|INTERRES
    55   27   91 1    
    56   28   29 2    
    57   28   30 1    
    58   30   31 1    
    59   30   32 1    
    60   30   92 1    
    61   31   93 1    
    62   31   94 1    
    63   31   95 1    
    64   32   33 am   BACKBONE|DICT|INTERRES
    65   32   96 1    
    66   33   34 2    
    67   33   35 1    
    68   35   36 1    
    69   35   37 1    
    70   35   97 1    
    71   36   98 1    
    72   36   99 1    
    73   36  100 1    
    74   37   38 am   BACKBONE|DICT|INTERRES
    75   37  101 1    
    76   38   39 2    
    77   38   40 1    
    78   40   41 1    
    79   40   42 1    
    80   40  102 1    
    81   41  103 1    
    82   41  104 1    
    83   41  105 1    
    84   42   43 am   BACKBONE|DICT|INTERRES
    85   42  106 1    
    86   43   44 2    
    87   43   45 1    
    88   45   46 1    
    89   45   49 1    
    90   45  107 1    
    91   46   47 1    
    92   46  108 1    
    93   46  109 1    
    94   47   48 1    
    95   48  110 1    
    96   48  111 1    
    97   49   50 am   BACKBONE|DICT|INTERRES
    98   49  112 1    
    99   50   51 2    
   100   50   52 1    
   101   52   53 1    
   102   52   54 1    
   103   52  113 1    
   104   53  114 1    
   105   53  115 1    
   106   53  116 1    
   107   54   55 am   BACKBONE|DICT|INTERRES
   108   54  117 1    
   109   55   56 2    
   110   55   57 1    
   111   57   58 1    
   112   57   59 1    
   113   57  118 1    
   114   58  119 1    
   115   58  120 1    
   116   58  121 1    
   117   59   60 am   BACKBONE|DICT|INTERRES
   118   59  122 1    
   119   60   61 2    
   120   60   62 1    
   121   62   63 1    
   122   62   64 1    
   123   62  123 1    
   124   63  124 1    
   125   63  125 1    
   126   63  126 1    
   127   64   65 am   BACKBONE|DICT|INTERRES
   128   64  127 1    
   129   65   66 2    
@<TRIPOS>SUBSTRUCTURE
     1 UNK         1 GROUP             0       ****    0 ROOT    
