@<TRIPOS>MOLECULE
3R135
127   129    1
SMALL
USER_CHARGES


@<TRIPOS>ATOM
      1 CA        -84.2119   25.1521  -73.9888 C.3       0 UNK        -0.1998 
      2 C         -83.2272   26.2619  -74.3229 C.2       0 UNK         0.4909 
      3 O         -82.9818   26.5305  -75.4997 O.2       0 UNK        -0.5240 
      4 N         -82.6648   26.9144  -73.2975 N.am      1 UNK        -0.4739 
      5 CA        -81.6630   27.9766  -73.4345 C.3       1 UNK         0.0864 
      6 C6        -81.4651   28.7763  -72.1220 C.3       11 UNK        -0.0881 
      7 S7        -81.0817   27.7525  -70.6579 S.3       11 UNK        -0.2682 
      8 C8        -79.6712   28.6482  -69.9331 C.3       11 UNK         0.0289 
      9 C9        -78.3365   28.2679  -70.5622 C.ar      11 UNK        -0.0687 
     10 C10       -77.8070   26.9932  -70.3467 C.ar      11 UNK        -0.0823 
     11 C11       -76.5402   26.6546  -70.8305 C.ar      11 UNK        -0.0830 
     12 C12       -75.7953   27.6053  -71.5359 C.ar      11 UNK        -0.1021 
     13 C13       -76.3105   28.8868  -71.7548 C.ar      11 UNK        -0.0753 
     14 C14       -77.5892   29.2067  -71.2814 C.ar      11 UNK        -0.0933 
     15 C15       -75.4527   29.9537  -72.4211 C.3       11 UNK         0.0166 
     16 S16       -75.2435   29.6794  -74.2082 S.3       11 UNK        -0.2615 
     17 C17       -74.7027   31.3431  -74.7365 C.3       11 UNK        -0.0865 
     18 CA        -73.2938   31.4056  -75.3852 C.3       10 UNK         0.0862 
     19 C         -72.9912   32.8786  -75.7940 C.2       10 UNK         0.5551 
     20 N         -72.1824   33.6185  -75.0450 N.am      10 UNK        -0.7319 
     21 O         -73.5095   33.3551  -76.8007 O.2       10 UNK        -0.5018 
     22 N         -72.2658   30.7387  -74.5630 N.am      10 UNK        -0.4509 
     23 C         -70.9719   30.5982  -74.8876 C.2       10 UNK         0.4899 
     24 O         -70.4567   31.0662  -75.9031 O.2       10 UNK        -0.4839 
     25 CA        -70.1023   29.7503  -73.9440 C.3       9 UNK         0.0222 
     26 CB        -70.0951   30.2780  -72.4929 C.3       9 UNK        -0.1966 
     27 N         -70.4565   28.3302  -74.0439 N.am      9 UNK        -0.4218 
     28 C         -71.5783   27.7351  -73.6190 C.2       9 UNK         0.5020 
     29 O         -72.4121   28.2637  -72.8821 O.2       9 UNK        -0.5274 
     30 CA        -71.8514   26.3296  -74.1778 C.3       8 UNK         0.0270 
     31 CB        -72.2121   25.3421  -73.0562 C.3       8 UNK        -0.1976 
     32 N         -72.9417   26.3896  -75.1547 N.am      8 UNK        -0.4313 
     33 C         -72.8745   27.0220  -76.3356 C.2       8 UNK         0.5041 
     34 O         -71.8374   27.5103  -76.7900 O.2       8 UNK        -0.5577 
     35 CA        -74.1893   27.1191  -77.1320 C.3       7 UNK         0.0284 
     36 CB        -74.0277   27.8330  -78.4902 C.3       7 UNK        -0.1958 
     37 N         -74.8512   25.8220  -77.3003 N.am      7 UNK        -0.4454 
     38 C         -74.3701   24.7173  -77.8904 C.2       7 UNK         0.5089 
     39 O         -73.2612   24.6407  -78.4222 O.2       7 UNK        -0.5125 
     40 CA        -75.3073   23.4903  -77.8733 C.3       6 UNK         0.0408 
     41 CB        -74.6051   22.1840  -78.3001 C.3       6 UNK        -0.1791 
     42 N         -75.9929   23.3221  -76.5851 N.am      6 UNK        -0.4762 
     43 C         -75.4268   23.1379  -75.3812 C.2       6 UNK         0.5007 
     44 O         -74.2149   22.9986  -75.2153 O.2       6 UNK        -0.5032 
     45 CA        -76.3510   23.1272  -74.1459 C.3       5 UNK         0.0783 
     46 C46       -75.9055   24.1906  -73.1141 C.3       11 UNK        -0.0857 
     47 S47       -76.7672   23.9829  -71.5246 S.3       11 UNK        -0.2512 
     48 C48       -75.9656   25.2782  -70.5324 C.3       11 UNK         0.0225 
     49 N         -77.7584   23.3108  -74.5137 N.am      5 UNK        -0.4615 
     50 C         -78.6649   22.3304  -74.5956 C.2       4 UNK         0.5053 
     51 O         -78.4140   21.1424  -74.3917 O.2       4 UNK        -0.5105 
     52 CA        -80.0966   22.7422  -74.9782 C.3       4 UNK         0.0263 
     53 CB        -80.9441   22.9691  -73.7163 C.3       4 UNK        -0.1981 
     54 N         -80.1351   23.9399  -75.8237 N.am      4 UNK        -0.4224 
     55 C         -79.7647   23.9523  -77.1137 C.2       3 UNK         0.4895 
     56 O         -79.3901   22.9507  -77.7235 O.2       3 UNK        -0.5091 
     57 CA        -79.7821   25.3020  -77.8520 C.3       3 UNK         0.0250 
     58 CB        -81.1116   25.4874  -78.6002 C.3       3 UNK        -0.1996 
     59 N         -79.5479   26.4599  -76.9872 N.am      3 UNK        -0.4254 
     60 C         -78.4138   26.7005  -76.3138 C.2       2 UNK         0.5004 
     61 O         -77.4370   25.9532  -76.3253 O.2       2 UNK        -0.5226 
     62 CA        -78.3777   27.9708  -75.4501 C.3       2 UNK         0.0269 
     63 CB        -77.9600   29.1738  -76.3116 C.3       2 UNK        -0.1926 
     64 N         -79.6502   28.2757  -74.7888 N.am      2 UNK        -0.4687 
     65 C         -80.3322   27.4373  -73.9954 C.2       1 UNK         0.5165 
     66 O         -79.9645   26.2897  -73.7304 O.2       1 UNK        -0.5079 
     67 H67       -85.2334   25.5035  -74.1304 H         1 UNK         0.0900 
     68 H68       -84.0544   24.2963  -74.6445 H         1 UNK         0.0900 
     69 H69       -84.1044   24.8135  -72.9584 H         1 UNK         0.0900 
     70 H70       -82.8630   26.6321  -72.3480 H         1 UNK         0.2959 
     71 H71       -82.0580   28.6753  -74.1760 H         1 UNK         0.1079 
     72 H72       -82.3789   29.3294  -71.8994 H         1 UNK         0.0837 
     73 H73       -80.6941   29.5376  -72.2557 H         1 UNK         0.0837 
     74 H74       -79.6296   28.4149  -68.8682 H         1 UNK         0.0685 
     75 H75       -79.8456   29.7235  -69.9954 H         1 UNK         0.0685 
     76 H76       -78.3768   26.2667  -69.7832 H         1 UNK         0.1434 
     77 H77       -74.8025   27.3650  -71.8917 H         1 UNK         0.1329 
     78 H78       -77.9831   30.2026  -71.4309 H         1 UNK         0.1335 
     79 H79       -74.4699   29.9790  -71.9481 H         1 UNK         0.0680 
     80 H80       -75.8988   30.9350  -72.2534 H         1 UNK         0.0680 
     81 H81       -74.7441   32.0268  -73.8868 H         1 UNK         0.1032 
     82 H82       -75.4516   31.7106  -75.4413 H         1 UNK         0.1032 
     83 H83       -73.3396   30.8351  -76.3148 H         1 UNK         0.0461 
     84 H84       -71.9901   34.5705  -75.3140 H         1 UNK         0.3453 
     85 H85       -71.7519   33.2278  -74.2225 H         1 UNK         0.3453 
     86 H86       -72.6038   30.2268  -73.7560 H         1 UNK         0.2984 
     87 H87       -69.0768   29.8207  -74.3105 H         1 UNK         0.0554 
     88 H88       -69.7133   31.2990  -72.4579 H         1 UNK         0.0847 
     89 H89       -69.4513   29.6709  -71.8566 H         1 UNK         0.0847 
     90 H90       -71.0872   30.2935  -72.0420 H         1 UNK         0.0847 
     91 H91       -69.8815   27.8038  -74.6882 H         1 UNK         0.3141 
     92 H92       -70.9579   25.9577  -74.6837 H         1 UNK         0.0743 
     93 H93       -71.3952   25.2568  -72.3385 H         1 UNK         0.0784 
     94 H94       -72.4011   24.3437  -73.4514 H         1 UNK         0.0784 
     95 H95       -73.0949   25.6626  -72.5030 H         1 UNK         0.0784 
     96 H96       -73.8310   26.0139  -74.8636 H         1 UNK         0.3213 
     97 H97       -74.8629   27.7259  -76.5258 H         1 UNK         0.0855 
     98 H98       -73.3460   27.2970  -79.1512 H         1 UNK         0.0814 
     99 H99       -73.6266   28.8383  -78.3553 H         1 UNK         0.0814 
    100 H100      -74.9849   27.9322  -79.0019 H         1 UNK         0.0814 
    101 H101      -75.7926   25.7652  -76.9078 H         1 UNK         0.3105 
    102 H102      -76.0892   23.6969  -78.6056 H         1 UNK         0.0547 
    103 H103      -75.2960   21.3412  -78.2922 H         1 UNK         0.0837 
    104 H104      -73.7685   21.9393  -77.6451 H         1 UNK         0.0837 
    105 H105      -74.2090   22.2674  -79.3128 H         1 UNK         0.0837 
    106 H106      -76.9956   23.4515  -76.6062 H         1 UNK         0.3020 
    107 H107      -76.2152   22.1439  -73.6892 H         1 UNK         0.1245 
    108 H108      -76.0794   25.2008  -73.4907 H         1 UNK         0.0781 
    109 H109      -74.8376   24.1060  -72.9118 H         1 UNK         0.0781 
    110 H110      -74.8869   25.2580  -70.6946 H         1 UNK         0.0836 
    111 H111      -76.1151   25.0511  -69.4759 H         1 UNK         0.0836 
    112 H112      -78.0509   24.2621  -74.6945 H         1 UNK         0.3022 
    113 H113      -80.5391   21.9145  -75.5370 H         1 UNK         0.0747 
    114 H114      -81.9783   23.1968  -73.9694 H         1 UNK         0.0793 
    115 H115      -80.9550   22.0763  -73.0896 H         1 UNK         0.0793 
    116 H116      -80.5563   23.7866  -73.1074 H         1 UNK         0.0793 
    117 H117      -80.3832   24.8125  -75.3721 H         1 UNK         0.3047 
    118 H118      -78.9765   25.2765  -78.5891 H         1 UNK         0.0822 
    119 H119      -81.1051   26.3948  -79.2042 H         1 UNK         0.0807 
    120 H120      -81.9565   25.5467  -77.9127 H         1 UNK         0.0807 
    121 H121      -81.2995   24.6518  -79.2760 H         1 UNK         0.0807 
    122 H122      -80.3109   27.1143  -76.8873 H         1 UNK         0.2946 
    123 H123      -77.6300   27.8154  -74.6686 H         1 UNK         0.1144 
    124 H124      -77.8580   30.0771  -75.7100 H         1 UNK         0.0793 
    125 H125      -78.6831   29.3786  -77.1020 H         1 UNK         0.0793 
    126 H126      -76.9964   28.9963  -76.7909 H         1 UNK         0.0793 
    127 H127      -80.0237   29.1995  -74.9532 H         1 UNK         0.2896 
@<TRIPOS>BOND
     1    1    2 1    
     2    1   67 1    
     3    1   68 1    
     4    1   69 1    
     5    2    3 2    
     6    2    4 am   BACKBONE|DICT|INTERRES
     7    4    5 1    
     8    4   70 1    
     9    5    6 1    
    10    5   65 1    
    11    5   71 1    
    12    6    7 1    
    13    6   72 1    
    14    6   73 1    
    15    7    8 1    
    16    8    9 1    
    17    8   74 1    
    18    8   75 1    
    19    9   10 ar   
    20    9   14 ar   
    21   10   11 ar   
    22   10   76 1    
    23   11   12 ar   
    24   11   48 1    
    25   12   13 ar   
    26   12   77 1    
    27   13   14 ar   
    28   13   15 1    
    29   14   78 1    
    30   15   16 1    
    31   15   79 1    
    32   15   80 1    
    33   16   17 1    
    34   17   18 1    
    35   17   81 1    
    36   17   82 1    
    37   18   19 1    
    38   18   22 1    
    39   18   83 1    
    40   19   20 am   BACKBONE|DICT|INTERRES
    41   19   21 2    
    42   20   84 1    
    43   20   85 1    
    44   22   23 am   BACKBONE|DICT|INTERRES
    45   22   86 1    
    46   23   24 2    
    47   23   25 1    
    48   25   26 1    
    49   25   27 1    
    50   25   87 1    
    51   26   88 1    
    52   26   89 1    
    53   26   90 1    
    54   27   28 am   BACKBONE|DICT|INTERRES
    55   27   91 1    
    56   28   29 2    
    57   28   30 1    
    58   30   31 1    
    59   30   32 1    
    60   30   92 1    
    61   31   93 1    
    62   31   94 1    
    63   31   95 1    
    64   32   33 am   BACKBONE|DICT|INTERRES
    65   32   96 1    
    66   33   34 2    
    67   33   35 1    
    68   35   36 1    
    69   35   37 1    
    70   35   97 1    
    71   36   98 1    
    72   36   99 1    
    73   36  100 1    
    74   37   38 am   BACKBONE|DICT|INTERRES
    75   37  101 1    
    76   38   39 2    
    77   38   40 1    
    78   40   41 1    
    79   40   42 1    
    80   40  102 1    
    81   41  103 1    
    82   41  104 1    
    83   41  105 1    
    84   42   43 am   BACKBONE|DICT|INTERRES
    85   42  106 1    
    86   43   44 2    
    87   43   45 1    
    88   45   46 1    
    89   45   49 1    
    90   45  107 1    
    91   46   47 1    
    92   46  108 1    
    93   46  109 1    
    94   47   48 1    
    95   48  110 1    
    96   48  111 1    
    97   49   50 am   BACKBONE|DICT|INTERRES
    98   49  112 1    
    99   50   51 2    
   100   50   52 1    
   101   52   53 1    
   102   52   54 1    
   103   52  113 1    
   104   53  114 1    
   105   53  115 1    
   106   53  116 1    
   107   54   55 am   BACKBONE|DICT|INTERRES
   108   54  117 1    
   109   55   56 2    
   110   55   57 1    
   111   57   58 1    
   112   57   59 1    
   113   57  118 1    
   114   58  119 1    
   115   58  120 1    
   116   58  121 1    
   117   59   60 am   BACKBONE|DICT|INTERRES
   118   59  122 1    
   119   60   61 2    
   120   60   62 1    
   121   62   63 1    
   122   62   64 1    
   123   62  123 1    
   124   63  124 1    
   125   63  125 1    
   126   63  126 1    
   127   64   65 am   BACKBONE|DICT|INTERRES
   128   64  127 1    
   129   65   66 2    
@<TRIPOS>SUBSTRUCTURE
     1 UNK         1 GROUP             0       ****    0 ROOT    
