@<TRIPOS>MOLECULE
3R135
127   129    1
SMALL
USER_CHARGES


@<TRIPOS>ATOM
      1 CA        -84.8695   28.2949  -71.0227 C.3       0 UNK        -0.1998 
      2 C         -84.5956   28.2049  -72.5162 C.2       0 UNK         0.4909 
      3 O         -85.4060   27.6457  -73.2556 O.2       0 UNK        -0.5240 
      4 N         -83.4592   28.7529  -72.9658 N.am      1 UNK        -0.4739 
      5 CA        -83.0077   28.7382  -74.3640 C.3       1 UNK         0.0864 
      6 C6        -81.9286   29.8198  -74.6414 C.3       11 UNK        -0.0881 
      7 S7        -80.5724   29.8620  -73.4168 S.3       11 UNK        -0.2682 
      8 C8        -79.2646   28.9775  -74.3150 C.3       11 UNK         0.0289 
      9 C9        -78.1817   28.4908  -73.3672 C.ar      11 UNK        -0.0687 
     10 C10       -78.4585   27.4361  -72.4950 C.ar      11 UNK        -0.0823 
     11 C11       -77.4725   26.9417  -71.6398 C.ar      11 UNK        -0.0830 
     12 C12       -76.1946   27.5048  -71.6653 C.ar      11 UNK        -0.1021 
     13 C13       -75.8983   28.5494  -72.5462 C.ar      11 UNK        -0.0753 
     14 C14       -76.9014   29.0535  -73.3823 C.ar      11 UNK        -0.0933 
     15 C15       -74.4765   29.0794  -72.6376 C.3       11 UNK         0.0166 
     16 S16       -74.3350   30.7863  -72.0231 S.3       11 UNK        -0.2615 
     17 C17       -72.5276   30.9304  -71.7956 C.3       11 UNK        -0.0865 
     18 CA        -71.7841   31.5248  -73.0213 C.3       10 UNK         0.0862 
     19 C         -70.2844   31.7698  -72.6756 C.2       10 UNK         0.5551 
     20 N         -69.3369   31.0238  -73.2341 N.am      10 UNK        -0.7319 
     21 O         -69.9784   32.6570  -71.8829 O.2       10 UNK        -0.5018 
     22 N         -71.9953   30.7120  -74.2278 N.am      10 UNK        -0.4509 
     23 C         -71.7219   31.0961  -75.4802 C.2       10 UNK         0.4899 
     24 O         -71.3851   32.2420  -75.7824 O.2       10 UNK        -0.4839 
     25 CA        -71.8417   30.0182  -76.5795 C.3       9 UNK         0.0222 
     26 CB        -70.8236   30.2339  -77.7187 C.3       9 UNK        -0.1966 
     27 N         -71.7731   28.6308  -76.0920 N.am      9 UNK        -0.4218 
     28 C         -70.7688   28.0494  -75.4114 C.2       9 UNK         0.5020 
     29 O         -69.7576   28.6514  -75.0461 O.2       9 UNK        -0.5274 
     30 CA        -70.9217   26.5635  -75.0269 C.3       8 UNK         0.0270 
     31 CB        -71.2192   26.4333  -73.5237 C.3       8 UNK        -0.1976 
     32 N         -71.9628   25.8625  -75.7839 N.am      8 UNK        -0.4313 
     33 C         -71.8641   25.5264  -77.0803 C.2       8 UNK         0.5041 
     34 O         -70.8345   25.6706  -77.7406 O.2       8 UNK        -0.5577 
     35 CA        -73.1216   24.9657  -77.7781 C.3       7 UNK         0.0284 
     36 CB        -73.0263   23.4371  -77.9081 C.3       7 UNK        -0.1958 
     37 N         -74.3861   25.3066  -77.1194 N.am      7 UNK        -0.4454 
     38 C         -74.8286   26.5448  -76.8560 C.2       7 UNK         0.5089 
     39 O         -74.2480   27.5688  -77.2159 O.2       7 UNK        -0.5125 
     40 CA        -76.0887   26.6681  -75.9821 C.3       6 UNK         0.0408 
     41 CB        -77.3065   26.9615  -76.8682 C.3       6 UNK        -0.1791 
     42 N         -76.3514   25.5035  -75.1216 N.am      6 UNK        -0.4762 
     43 C         -75.4974   25.0137  -74.2048 C.2       6 UNK         0.5007 
     44 O         -74.3995   25.5223  -73.9695 O.2       6 UNK        -0.5032 
     45 CA        -75.8581   23.6869  -73.5064 C.3       5 UNK         0.0783 
     46 C46       -76.1821   23.8394  -71.9963 C.3       11 UNK        -0.0857 
     47 S47       -77.9263   24.2153  -71.6087 S.3       11 UNK        -0.2512 
     48 C48       -77.7931   25.7882  -70.7051 C.3       11 UNK         0.0225 
     49 N         -76.8763   22.9278  -74.2392 N.am      5 UNK        -0.4615 
     50 C         -76.6131   22.1028  -75.2595 C.2       4 UNK         0.5053 
     51 O         -75.4809   21.8845  -75.6906 O.2       4 UNK        -0.5105 
     52 CA        -77.8218   21.4199  -75.9189 C.3       4 UNK         0.0263 
     53 CB        -78.4000   20.3254  -75.0065 C.3       4 UNK        -0.1981 
     54 N         -78.8775   22.3670  -76.2843 N.am      4 UNK        -0.4224 
     55 C         -78.7479   23.3328  -77.2053 C.2       3 UNK         0.4895 
     56 O         -77.7204   23.5243  -77.8558 O.2       3 UNK        -0.5091 
     57 CA        -79.9679   24.2364  -77.4613 C.3       3 UNK         0.0250 
     58 CB        -80.7368   23.7515  -78.7012 C.3       3 UNK        -0.1996 
     59 N         -80.9016   24.3596  -76.3370 N.am      3 UNK        -0.4254 
     60 C         -80.6139   24.9007  -75.1452 C.2       2 UNK         0.5004 
     61 O         -79.4847   25.2572  -74.8072 O.2       2 UNK        -0.5226 
     62 CA        -81.7926   25.0609  -74.1675 C.3       2 UNK         0.0269 
     63 CB        -81.4963   24.3793  -72.8222 C.3       2 UNK        -0.1926 
     64 N         -82.1481   26.4630  -73.9265 N.am      2 UNK        -0.4687 
     65 C         -82.5782   27.3350  -74.8523 C.2       1 UNK         0.5165 
     66 O         -82.6837   27.0625  -76.0490 O.2       1 UNK        -0.5079 
     67 H67       -84.0737   28.8184  -70.4930 H         1 UNK         0.0900 
     68 H68       -84.9602   27.2959  -70.5971 H         1 UNK         0.0900 
     69 H69       -85.8030   28.8278  -70.8440 H         1 UNK         0.0900 
     70 H70       -82.8276   29.2062  -72.3191 H         1 UNK         0.2959 
     71 H71       -83.8745   28.9986  -74.9763 H         1 UNK         0.1079 
     72 H72       -81.5225   29.7248  -75.6507 H         1 UNK         0.0837 
     73 H73       -82.4038   30.8017  -74.6186 H         1 UNK         0.0837 
     74 H74       -79.6943   28.1163  -74.8270 H         1 UNK         0.0685 
     75 H75       -78.8495   29.6266  -75.0874 H         1 UNK         0.0685 
     76 H76       -79.4417   26.9869  -72.4973 H         1 UNK         0.1434 
     77 H77       -75.4217   27.1092  -71.0208 H         1 UNK         0.1329 
     78 H78       -76.6721   29.8579  -74.0675 H         1 UNK         0.1335 
     79 H79       -74.1527   29.0352  -73.6778 H         1 UNK         0.0680 
     80 H80       -73.8007   28.4329  -72.0760 H         1 UNK         0.0680 
     81 H81       -72.3719   31.5677  -70.9226 H         1 UNK         0.1032 
     82 H82       -72.1090   29.9594  -71.5247 H         1 UNK         0.1032 
     83 H83       -72.2136   32.5087  -73.2198 H         1 UNK         0.0461 
     84 H84       -68.3727   31.1982  -73.0004 H         1 UNK         0.3453 
     85 H85       -69.5698   30.2808  -73.8850 H         1 UNK         0.3453 
     86 H86       -72.2507   29.7499  -74.0761 H         1 UNK         0.2984 
     87 H87       -72.8399   30.1348  -77.0036 H         1 UNK         0.0554 
     88 H88       -70.9355   29.4799  -78.4980 H         1 UNK         0.0847 
     89 H89       -69.7964   30.1906  -77.3551 H         1 UNK         0.0847 
     90 H90       -70.9604   31.2073  -78.1915 H         1 UNK         0.0847 
     91 H91       -72.5723   28.0584  -76.3530 H         1 UNK         0.3141 
     92 H92       -69.9656   26.0760  -75.2288 H         1 UNK         0.0743 
     93 H93       -70.4341   26.8996  -72.9267 H         1 UNK         0.0784 
     94 H94       -72.1610   26.9124  -73.2551 H         1 UNK         0.0784 
     95 H95       -71.2784   25.3881  -73.2198 H         1 UNK         0.0784 
     96 H96       -72.8400   25.6975  -75.2982 H         1 UNK         0.3213 
     97 H97       -73.1515   25.3968  -78.7808 H         1 UNK         0.0855 
     98 H98       -73.8634   23.0330  -78.4778 H         1 UNK         0.0814 
     99 H99       -73.0198   22.9495  -76.9322 H         1 UNK         0.0814 
    100 H100      -72.1118   23.1443  -78.4259 H         1 UNK         0.0814 
    101 H101      -74.9454   24.5330  -76.7867 H         1 UNK         0.3105 
    102 H102      -75.9301   27.5213  -75.3252 H         1 UNK         0.0547 
    103 H103      -77.4411   26.1931  -77.6285 H         1 UNK         0.0837 
    104 H104      -78.2228   27.0284  -76.2858 H         1 UNK         0.0837 
    105 H105      -77.1849   27.9118  -77.3896 H         1 UNK         0.0837 
    106 H106      -77.2638   25.0715  -75.2078 H         1 UNK         0.3020 
    107 H107      -74.9304   23.1101  -73.5451 H         1 UNK         0.1245 
    108 H108      -75.5218   24.5706  -71.5265 H         1 UNK         0.0781 
    109 H109      -75.9566   22.8960  -71.4968 H         1 UNK         0.0781 
    110 H110      -78.7416   25.9863  -70.2039 H         1 UNK         0.0836 
    111 H111      -77.0450   25.6991  -69.9158 H         1 UNK         0.0836 
    112 H112      -77.8326   23.0827  -73.9512 H         1 UNK         0.3022 
    113 H113      -77.4702   20.9436  -76.8369 H         1 UNK         0.0747 
    114 H114      -77.6300   19.6052  -74.7262 H         1 UNK         0.0793 
    115 H115      -79.1925   19.7696  -75.5082 H         1 UNK         0.0793 
    116 H116      -78.8116   20.7375  -74.0842 H         1 UNK         0.0793 
    117 H117      -79.7612   22.2815  -75.8043 H         1 UNK         0.3047 
    118 H118      -79.5902   25.2375  -77.6734 H         1 UNK         0.0822 
    119 H119      -80.0772   23.6807  -79.5675 H         1 UNK         0.0807 
    120 H120      -81.5398   24.4401  -78.9654 H         1 UNK         0.0807 
    121 H121      -81.1757   22.7653  -78.5447 H         1 UNK         0.0807 
    122 H122      -81.8601   24.1058  -76.5293 H         1 UNK         0.2946 
    123 H123      -82.6688   24.5725  -74.5995 H         1 UNK         0.1144 
    124 H124      -82.3804   24.3590  -72.1847 H         1 UNK         0.0793 
    125 H125      -80.7051   24.8935  -72.2776 H         1 UNK         0.0793 
    126 H126      -81.1758   23.3464  -72.9648 H         1 UNK         0.0793 
    127 H127      -82.0916   26.7868  -72.9725 H         1 UNK         0.2896 
@<TRIPOS>BOND
     1    1    2 1    
     2    1   67 1    
     3    1   68 1    
     4    1   69 1    
     5    2    3 2    
     6    2    4 am   BACKBONE|DICT|INTERRES
     7    4    5 1    
     8    4   70 1    
     9    5    6 1    
    10    5   65 1    
    11    5   71 1    
    12    6    7 1    
    13    6   72 1    
    14    6   73 1    
    15    7    8 1    
    16    8    9 1    
    17    8   74 1    
    18    8   75 1    
    19    9   10 ar   
    20    9   14 ar   
    21   10   11 ar   
    22   10   76 1    
    23   11   12 ar   
    24   11   48 1    
    25   12   13 ar   
    26   12   77 1    
    27   13   14 ar   
    28   13   15 1    
    29   14   78 1    
    30   15   16 1    
    31   15   79 1    
    32   15   80 1    
    33   16   17 1    
    34   17   18 1    
    35   17   81 1    
    36   17   82 1    
    37   18   19 1    
    38   18   22 1    
    39   18   83 1    
    40   19   20 am   BACKBONE|DICT|INTERRES
    41   19   21 2    
    42   20   84 1    
    43   20   85 1    
    44   22   23 am   BACKBONE|DICT|INTERRES
    45   22   86 1    
    46   23   24 2    
    47   23   25 1    
    48   25   26 1    
    49   25   27 1    
    50   25   87 1    
    51   26   88 1    
    52   26   89 1    
    53   26   90 1    
    54   27   28 am   BACKBONE|DICT|INTERRES
    55   27   91 1    
    56   28   29 2    
    57   28   30 1    
    58   30   31 1    
    59   30   32 1    
    60   30   92 1    
    61   31   93 1    
    62   31   94 1    
    63   31   95 1    
    64   32   33 am   BACKBONE|DICT|INTERRES
    65   32   96 1    
    66   33   34 2    
    67   33   35 1    
    68   35   36 1    
    69   35   37 1    
    70   35   97 1    
    71   36   98 1    
    72   36   99 1    
    73   36  100 1    
    74   37   38 am   BACKBONE|DICT|INTERRES
    75   37  101 1    
    76   38   39 2    
    77   38   40 1    
    78   40   41 1    
    79   40   42 1    
    80   40  102 1    
    81   41  103 1    
    82   41  104 1    
    83   41  105 1    
    84   42   43 am   BACKBONE|DICT|INTERRES
    85   42  106 1    
    86   43   44 2    
    87   43   45 1    
    88   45   46 1    
    89   45   49 1    
    90   45  107 1    
    91   46   47 1    
    92   46  108 1    
    93   46  109 1    
    94   47   48 1    
    95   48  110 1    
    96   48  111 1    
    97   49   50 am   BACKBONE|DICT|INTERRES
    98   49  112 1    
    99   50   51 2    
   100   50   52 1    
   101   52   53 1    
   102   52   54 1    
   103   52  113 1    
   104   53  114 1    
   105   53  115 1    
   106   53  116 1    
   107   54   55 am   BACKBONE|DICT|INTERRES
   108   54  117 1    
   109   55   56 2    
   110   55   57 1    
   111   57   58 1    
   112   57   59 1    
   113   57  118 1    
   114   58  119 1    
   115   58  120 1    
   116   58  121 1    
   117   59   60 am   BACKBONE|DICT|INTERRES
   118   59  122 1    
   119   60   61 2    
   120   60   62 1    
   121   62   63 1    
   122   62   64 1    
   123   62  123 1    
   124   63  124 1    
   125   63  125 1    
   126   63  126 1    
   127   64   65 am   BACKBONE|DICT|INTERRES
   128   64  127 1    
   129   65   66 2    
@<TRIPOS>SUBSTRUCTURE
     1 UNK         1 GROUP             0       ****    0 ROOT    
