@<TRIPOS>MOLECULE
3R135
127   129    1
SMALL
USER_CHARGES


@<TRIPOS>ATOM
      1 CA        -80.8928   30.0275  -76.2457 C.3       0 UNK        -0.1998 
      2 C         -80.6486   29.0685  -75.0911 C.2       0 UNK         0.4909 
      3 O         -79.5742   28.4767  -75.0061 O.2       0 UNK        -0.5240 
      4 N         -81.6380   28.9047  -74.2044 N.am      1 UNK        -0.4739 
      5 CA        -81.5854   28.0195  -73.0353 C.3       1 UNK         0.0864 
      6 C6        -82.5097   28.5144  -71.8917 C.3       11 UNK        -0.0881 
      7 S7        -82.1191   30.2059  -71.3302 S.3       11 UNK        -0.2682 
      8 C8        -81.1497   29.8866  -69.8231 C.3       11 UNK         0.0289 
      9 C9        -79.7224   29.4687  -70.1444 C.ar      11 UNK        -0.0687 
     10 C10       -79.3310   28.1285  -70.0458 C.ar      11 UNK        -0.0823 
     11 C11       -78.0098   27.7605  -70.3173 C.ar      11 UNK        -0.0830 
     12 C12       -77.0785   28.7442  -70.6511 C.ar      11 UNK        -0.1021 
     13 C13       -77.4640   30.0770  -70.8087 C.ar      11 UNK        -0.0753 
     14 C14       -78.7888   30.4339  -70.5387 C.ar      11 UNK        -0.0933 
     15 C15       -76.4613   31.1273  -71.2784 C.3       11 UNK         0.0166 
     16 S16       -75.6469   30.6671  -72.8508 S.3       11 UNK        -0.2615 
     17 C17       -74.2204   29.6845  -72.2658 C.3       11 UNK        -0.0865 
     18 CA        -72.8962   30.1021  -72.9535 C.3       10 UNK         0.0862 
     19 C         -71.6564   29.6771  -72.1068 C.2       10 UNK         0.5551 
     20 N         -70.7040   28.9094  -72.6221 N.am      10 UNK        -0.7319 
     21 O         -71.5511   30.0663  -70.9462 O.2       10 UNK        -0.5018 
     22 N         -72.8713   29.6494  -74.3531 N.am      10 UNK        -0.4509 
     23 C         -72.0919   30.1673  -75.3098 C.2       10 UNK         0.4899 
     24 O         -71.3902   31.1685  -75.1555 O.2       10 UNK        -0.4839 
     25 CA        -72.0785   29.4099  -76.6524 C.3       9 UNK         0.0222 
     26 CB        -70.9293   29.8510  -77.5828 C.3       9 UNK        -0.1966 
     27 N         -72.0707   27.9511  -76.4795 N.am      9 UNK        -0.4218 
     28 C         -71.1772   27.2126  -75.8003 C.2       9 UNK         0.5020 
     29 O         -70.1915   27.6876  -75.2351 O.2       9 UNK        -0.5274 
     30 CA        -71.4286   25.6965  -75.6831 C.3       8 UNK         0.0270 
     31 CB        -71.8043   25.3313  -74.2368 C.3       8 UNK        -0.1976 
     32 N         -72.4679   25.1982  -76.5864 N.am      8 UNK        -0.4313 
     33 C         -72.3271   25.0664  -77.9122 C.2       8 UNK         0.5041 
     34 O         -71.2685   25.2584  -78.5116 O.2       8 UNK        -0.5577 
     35 CA        -73.5909   24.7042  -78.7098 C.3       7 UNK         0.0284 
     36 CB        -73.7800   23.1799  -78.7548 C.3       7 UNK        -0.1958 
     37 N         -74.8045   25.3478  -78.1903 N.am      7 UNK        -0.4454 
     38 C         -75.0073   26.6743  -78.1557 C.2       7 UNK         0.5089 
     39 O         -74.2011   27.4979  -78.5864 O.2       7 UNK        -0.5125 
     40 CA        -76.2958   27.1779  -77.4866 C.3       6 UNK         0.0408 
     41 CB        -77.5023   27.0269  -78.4254 C.3       6 UNK        -0.1791 
     42 N         -76.5725   26.5023  -76.2213 N.am      6 UNK        -0.4762 
     43 C         -75.8217   26.5869  -75.1126 C.2       6 UNK         0.5007 
     44 O         -74.8112   27.2866  -75.0092 O.2       6 UNK        -0.5032 
     45 CA        -76.2641   25.6954  -73.9338 C.3       5 UNK         0.0783 
     46 C46       -77.4331   26.3655  -73.1719 C.3       11 UNK        -0.0857 
     47 S47       -78.0949   25.3851  -71.7747 S.3       11 UNK        -0.2512 
     48 C48       -77.5731   26.3025  -70.2852 C.3       11 UNK         0.0225 
     49 N         -76.5975   24.3422  -74.3918 N.am      5 UNK        -0.4615 
     50 C         -75.7338   23.4821  -74.9479 C.2       4 UNK         0.5053 
     51 O         -74.5409   23.7258  -75.1247 O.2       4 UNK        -0.5105 
     52 CA        -76.3071   22.1346  -75.4170 C.3       4 UNK         0.0263 
     53 CB        -76.4389   21.1619  -74.2344 C.3       4 UNK        -0.1981 
     54 N         -77.6026   22.2736  -76.0873 N.am      4 UNK        -0.4224 
     55 C         -77.7859   22.8974  -77.2605 C.2       3 UNK         0.4895 
     56 O         -76.8760   23.3875  -77.9267 O.2       3 UNK        -0.5091 
     57 CA        -79.2374   23.0488  -77.7479 C.3       3 UNK         0.0250 
     58 CB        -79.7013   21.7775  -78.4765 C.3       3 UNK        -0.1996 
     59 N         -80.1813   23.3787  -76.6735 N.am      3 UNK        -0.4254 
     60 C         -80.0863   24.4642  -75.8937 C.2       2 UNK         0.5004 
     61 O         -79.1890   25.3039  -75.9999 O.2       2 UNK        -0.5226 
     62 CA        -81.1335   24.6103  -74.7852 C.3       2 UNK         0.0269 
     63 CB        -80.9254   23.5447  -73.6895 C.3       2 UNK        -0.1926 
     64 N         -81.0182   25.9534  -74.2229 N.am      2 UNK        -0.4687 
     65 C         -81.9188   26.5720  -73.4559 C.2       1 UNK         0.5165 
     66 O         -82.9866   26.0568  -73.1175 O.2       1 UNK        -0.5079 
     67 H67       -81.8772   30.4918  -76.1902 H         1 UNK         0.0900 
     68 H68       -80.1435   30.8184  -76.2391 H         1 UNK         0.0900 
     69 H69       -80.8193   29.4962  -77.1940 H         1 UNK         0.0900 
     70 H70       -82.5043   29.4093  -74.3266 H         1 UNK         0.2959 
     71 H71       -80.5630   28.0097  -72.6499 H         1 UNK         0.1079 
     72 H72       -82.4601   27.8336  -71.0399 H         1 UNK         0.0837 
     73 H73       -83.5522   28.5105  -72.2156 H         1 UNK         0.0837 
     74 H74       -81.1277   30.7987  -69.2247 H         1 UNK         0.0685 
     75 H75       -81.6497   29.1366  -69.2084 H         1 UNK         0.0685 
     76 H76       -80.0526   27.3713  -69.7710 H         1 UNK         0.1434 
     77 H77       -76.0588   28.4510  -70.8407 H         1 UNK         0.1329 
     78 H78       -79.1009   31.4645  -70.6397 H         1 UNK         0.1335 
     79 H79       -76.9672   32.0809  -71.4365 H         1 UNK         0.0680 
     80 H80       -75.7209   31.3069  -70.4982 H         1 UNK         0.0680 
     81 H81       -74.1439   29.7976  -71.1832 H         1 UNK         0.1032 
     82 H82       -74.4184   28.6262  -72.4440 H         1 UNK         0.1032 
     83 H83       -72.8630   31.1934  -72.9627 H         1 UNK         0.0461 
     84 H84       -70.7277   28.6022  -73.5885 H         1 UNK         0.3453 
     85 H85       -69.9165   28.6617  -72.0451 H         1 UNK         0.3453 
     86 H86       -73.4328   28.8329  -74.5713 H         1 UNK         0.2984 
     87 H87       -73.0191   29.6529  -77.1485 H         1 UNK         0.0554 
     88 H88       -70.9969   30.9151  -77.8117 H         1 UNK         0.0847 
     89 H89       -70.9606   29.3140  -78.5309 H         1 UNK         0.0847 
     90 H90       -69.9526   29.6766  -77.1302 H         1 UNK         0.0847 
     91 H91       -72.8530   27.4697  -76.9072 H         1 UNK         0.3141 
     92 H92       -70.4915   25.1930  -75.9294 H         1 UNK         0.0743 
     93 H93       -72.7380   25.8046  -73.9313 H         1 UNK         0.0784 
     94 H94       -71.9211   24.2540  -74.1174 H         1 UNK         0.0784 
     95 H95       -71.0320   25.6521  -73.5364 H         1 UNK         0.0784 
     96 H96       -73.3531   24.9349  -76.1606 H         1 UNK         0.3213 
     97 H97       -73.4444   25.0581  -79.7325 H         1 UNK         0.0855 
     98 H98       -73.9771   22.7688  -77.7643 H         1 UNK         0.0814 
     99 H99       -72.8880   22.6861  -79.1425 H         1 UNK         0.0814 
    100 H100      -74.6103   22.9026  -79.4043 H         1 UNK         0.0814 
    101 H101      -75.5460   24.7281  -77.8701 H         1 UNK         0.3105 
    102 H102      -76.1669   28.2405  -77.2701 H         1 UNK         0.0547 
    103 H103      -77.3336   27.5512  -79.3667 H         1 UNK         0.0837 
    104 H104      -77.7020   25.9816  -78.6628 H         1 UNK         0.0837 
    105 H105      -78.4045   27.4438  -77.9766 H         1 UNK         0.0837 
    106 H106      -77.4220   25.9417  -76.1838 H         1 UNK         0.3020 
    107 H107      -75.4140   25.6123  -73.2532 H         1 UNK         0.1245 
    108 H108      -77.1311   27.3557  -72.8388 H         1 UNK         0.0781 
    109 H109      -78.2672   26.5399  -73.8495 H         1 UNK         0.0781 
    110 H110      -77.9948   25.8156  -69.4048 H         1 UNK         0.0836 
    111 H111      -76.4895   26.2247  -70.1835 H         1 UNK         0.0836 
    112 H112      -77.5670   24.0771  -74.3104 H         1 UNK         0.3022 
    113 H113      -75.6028   21.7062  -76.1333 H         1 UNK         0.0747 
    114 H114      -76.7660   20.1763  -74.5660 H         1 UNK         0.0793 
    115 H115      -75.4802   21.0305  -73.7305 H         1 UNK         0.0793 
    116 H116      -77.1515   21.5202  -73.4901 H         1 UNK         0.0793 
    117 H117      -78.4100   21.8997  -75.6110 H         1 UNK         0.3047 
    118 H118      -79.2546   23.8751  -78.4619 H         1 UNK         0.0822 
    119 H119      -80.6901   21.9103  -78.9160 H         1 UNK         0.0807 
    120 H120      -79.7433   20.9174  -77.8072 H         1 UNK         0.0807 
    121 H121      -79.0195   21.5244  -79.2899 H         1 UNK         0.0807 
    122 H122      -80.9440   22.7332  -76.5252 H         1 UNK         0.2946 
    123 H123      -82.1248   24.4991  -75.2300 H         1 UNK         0.1144 
    124 H124      -81.6437   23.6561  -72.8774 H         1 UNK         0.0793 
    125 H125      -79.9263   23.5997  -73.2579 H         1 UNK         0.0793 
    126 H126      -81.0528   22.5374  -74.0872 H         1 UNK         0.0793 
    127 H127      -80.2074   26.4756  -74.5478 H         1 UNK         0.2896 
@<TRIPOS>BOND
     1    1    2 1    
     2    1   67 1    
     3    1   68 1    
     4    1   69 1    
     5    2    3 2    
     6    2    4 am   BACKBONE|DICT|INTERRES
     7    4    5 1    
     8    4   70 1    
     9    5    6 1    
    10    5   65 1    
    11    5   71 1    
    12    6    7 1    
    13    6   72 1    
    14    6   73 1    
    15    7    8 1    
    16    8    9 1    
    17    8   74 1    
    18    8   75 1    
    19    9   10 ar   
    20    9   14 ar   
    21   10   11 ar   
    22   10   76 1    
    23   11   12 ar   
    24   11   48 1    
    25   12   13 ar   
    26   12   77 1    
    27   13   14 ar   
    28   13   15 1    
    29   14   78 1    
    30   15   16 1    
    31   15   79 1    
    32   15   80 1    
    33   16   17 1    
    34   17   18 1    
    35   17   81 1    
    36   17   82 1    
    37   18   19 1    
    38   18   22 1    
    39   18   83 1    
    40   19   20 am   BACKBONE|DICT|INTERRES
    41   19   21 2    
    42   20   84 1    
    43   20   85 1    
    44   22   23 am   BACKBONE|DICT|INTERRES
    45   22   86 1    
    46   23   24 2    
    47   23   25 1    
    48   25   26 1    
    49   25   27 1    
    50   25   87 1    
    51   26   88 1    
    52   26   89 1    
    53   26   90 1    
    54   27   28 am   BACKBONE|DICT|INTERRES
    55   27   91 1    
    56   28   29 2    
    57   28   30 1    
    58   30   31 1    
    59   30   32 1    
    60   30   92 1    
    61   31   93 1    
    62   31   94 1    
    63   31   95 1    
    64   32   33 am   BACKBONE|DICT|INTERRES
    65   32   96 1    
    66   33   34 2    
    67   33   35 1    
    68   35   36 1    
    69   35   37 1    
    70   35   97 1    
    71   36   98 1    
    72   36   99 1    
    73   36  100 1    
    74   37   38 am   BACKBONE|DICT|INTERRES
    75   37  101 1    
    76   38   39 2    
    77   38   40 1    
    78   40   41 1    
    79   40   42 1    
    80   40  102 1    
    81   41  103 1    
    82   41  104 1    
    83   41  105 1    
    84   42   43 am   BACKBONE|DICT|INTERRES
    85   42  106 1    
    86   43   44 2    
    87   43   45 1    
    88   45   46 1    
    89   45   49 1    
    90   45  107 1    
    91   46   47 1    
    92   46  108 1    
    93   46  109 1    
    94   47   48 1    
    95   48  110 1    
    96   48  111 1    
    97   49   50 am   BACKBONE|DICT|INTERRES
    98   49  112 1    
    99   50   51 2    
   100   50   52 1    
   101   52   53 1    
   102   52   54 1    
   103   52  113 1    
   104   53  114 1    
   105   53  115 1    
   106   53  116 1    
   107   54   55 am   BACKBONE|DICT|INTERRES
   108   54  117 1    
   109   55   56 2    
   110   55   57 1    
   111   57   58 1    
   112   57   59 1    
   113   57  118 1    
   114   58  119 1    
   115   58  120 1    
   116   58  121 1    
   117   59   60 am   BACKBONE|DICT|INTERRES
   118   59  122 1    
   119   60   61 2    
   120   60   62 1    
   121   62   63 1    
   122   62   64 1    
   123   62  123 1    
   124   63  124 1    
   125   63  125 1    
   126   63  126 1    
   127   64   65 am   BACKBONE|DICT|INTERRES
   128   64  127 1    
   129   65   66 2    
@<TRIPOS>SUBSTRUCTURE
     1 UNK         1 GROUP             0       ****    0 ROOT    
