@<TRIPOS>MOLECULE
3R135
127   129    1
SMALL
USER_CHARGES


@<TRIPOS>ATOM
      1 CA        -77.4116   30.5304  -75.6601 C.3       0 UNK        -0.1998 
      2 C         -78.0461   29.4548  -74.7920 C.2       0 UNK         0.4909 
      3 O         -77.4183   28.4285  -74.5423 O.2       0 UNK        -0.5240 
      4 N         -79.2810   29.6894  -74.3313 N.am      1 UNK        -0.4739 
      5 CA        -80.0782   28.7380  -73.5530 C.3       1 UNK         0.0864 
      6 C6        -81.1594   29.4864  -72.7300 C.3       11 UNK        -0.0881 
      7 S7        -81.9503   28.4516  -71.4491 S.3       11 UNK        -0.2682 
      8 C8        -81.0441   28.9449  -69.9473 C.3       11 UNK         0.0289 
      9 C9        -79.5698   28.5784  -70.0310 C.ar      11 UNK        -0.0687 
     10 C10       -79.1828   27.2350  -70.0551 C.ar      11 UNK        -0.0823 
     11 C11       -77.8349   26.8860  -70.1773 C.ar      11 UNK        -0.0830 
     12 C12       -76.8684   27.8940  -70.2427 C.ar      11 UNK        -0.1021 
     13 C13       -77.2411   29.2405  -70.1924 C.ar      11 UNK        -0.0753 
     14 C14       -78.5939   29.5782  -70.0944 C.ar      11 UNK        -0.0933 
     15 C15       -76.1763   30.3250  -70.2273 C.3       11 UNK         0.0166 
     16 S16       -75.8957   30.9257  -71.9201 S.3       11 UNK        -0.2615 
     17 C17       -74.1683   31.5037  -71.7807 C.3       11 UNK        -0.0865 
     18 CA        -73.5226   31.8608  -73.1458 C.3       10 UNK         0.0862 
     19 C         -72.0473   32.3029  -72.9331 C.2       10 UNK         0.5551 
     20 N         -71.7834   33.6025  -72.9261 N.am      10 UNK        -0.7319 
     21 O         -71.1568   31.4827  -72.7205 O.2       10 UNK        -0.5018 
     22 N         -73.6939   30.7635  -74.1102 N.am      10 UNK        -0.4509 
     23 C         -73.2052   30.6862  -75.3530 C.2       10 UNK         0.4899 
     24 O         -72.4627   31.5212  -75.8729 O.2       10 UNK        -0.4839 
     25 CA        -73.6869   29.4814  -76.1810 C.3       9 UNK         0.0222 
     26 CB        -74.1771   29.9463  -77.5656 C.3       9 UNK        -0.1966 
     27 N         -72.6774   28.4336  -76.3563 N.am      9 UNK        -0.4218 
     28 C         -72.0009   27.7973  -75.3872 C.2       9 UNK         0.5020 
     29 O         -72.0901   28.0574  -74.1865 O.2       9 UNK        -0.5274 
     30 CA        -71.1404   26.6127  -75.8527 C.3       8 UNK         0.0270 
     31 CB        -70.3404   25.9488  -74.7153 C.3       8 UNK        -0.1976 
     32 N         -72.0388   25.6337  -76.4569 N.am      8 UNK        -0.4313 
     33 C         -71.8083   24.9422  -77.5802 C.2       8 UNK         0.5041 
     34 O         -70.7329   24.9526  -78.1807 O.2       8 UNK        -0.5577 
     35 CA        -72.9831   24.1227  -78.1570 C.3       7 UNK         0.0284 
     36 CB        -72.8863   22.6549  -77.7115 C.3       7 UNK        -0.1958 
     37 N         -74.2994   24.6497  -77.7833 N.am      7 UNK        -0.4454 
     38 C         -74.7580   25.8709  -78.0931 C.2       7 UNK         0.5089 
     39 O         -74.1876   26.6292  -78.8775 O.2       7 UNK        -0.5125 
     40 CA        -76.0299   26.3606  -77.3737 C.3       6 UNK         0.0408 
     41 CB        -77.2154   26.4166  -78.3489 C.3       6 UNK        -0.1791 
     42 N         -76.4219   25.5917  -76.1882 N.am      6 UNK        -0.4762 
     43 C         -75.6906   25.3741  -75.0837 C.2       6 UNK         0.5007 
     44 O         -74.5215   25.7349  -74.9514 O.2       6 UNK        -0.5032 
     45 CA        -76.3658   24.5572  -73.9671 C.3       5 UNK         0.0783 
     46 C46       -77.2146   25.4824  -73.0626 C.3       11 UNK        -0.0857 
     47 S47       -78.0687   24.5869  -71.7215 S.3       11 UNK        -0.2512 
     48 C48       -77.4234   25.4207  -70.2359 C.3       11 UNK         0.0225 
     49 N         -77.1526   23.4607  -74.5389 N.am      5 UNK        -0.4615 
     50 C         -76.6434   22.3300  -75.0433 C.2       4 UNK         0.5053 
     51 O         -75.4408   22.0689  -75.0552 O.2       4 UNK        -0.5105 
     52 CA        -77.6420   21.3204  -75.6380 C.3       4 UNK         0.0263 
     53 CB        -78.1232   20.3429  -74.5537 C.3       4 UNK        -0.1981 
     54 N         -78.8025   21.9670  -76.2569 N.am      4 UNK        -0.4224 
     55 C         -78.7680   22.6247  -77.4249 C.2       3 UNK         0.4895 
     56 O         -77.7739   22.6833  -78.1488 O.2       3 UNK        -0.5091 
     57 CA        -80.0510   23.3705  -77.8444 C.3       3 UNK         0.0250 
     58 CB        -80.9531   22.4547  -78.6872 C.3       3 UNK        -0.1996 
     59 N         -80.8276   23.9292  -76.7271 N.am      3 UNK        -0.4254 
     60 C         -80.3518   24.8074  -75.8329 C.2       2 UNK         0.5004 
     61 O         -79.1845   25.1968  -75.8302 O.2       2 UNK        -0.5226 
     62 CA        -81.3174   25.2743  -74.7295 C.3       2 UNK         0.0269 
     63 CB        -81.5744   24.1385  -73.7240 C.3       2 UNK        -0.1926 
     64 N         -80.7989   26.4322  -73.9945 N.am      2 UNK        -0.4687 
     65 C         -80.6966   27.6742  -74.4867 C.2       1 UNK         0.5165 
     66 O         -81.1052   28.0026  -75.6047 O.2       1 UNK        -0.5079 
     67 H67       -77.1492   30.1144  -76.6322 H         1 UNK         0.0900 
     68 H68       -76.5042   30.9049  -75.1878 H         1 UNK         0.0900 
     69 H69       -78.0824   31.3739  -75.8214 H         1 UNK         0.0900 
     70 H70       -79.7578   30.5363  -74.6046 H         1 UNK         0.2959 
     71 H71       -79.4004   28.2335  -72.8601 H         1 UNK         0.1079 
     72 H72       -80.7177   30.3562  -72.2410 H         1 UNK         0.0837 
     73 H73       -81.9381   29.8825  -73.3849 H         1 UNK         0.0837 
     74 H74       -81.1750   30.0155  -69.7818 H         1 UNK         0.0685 
     75 H75       -81.4885   28.4445  -69.0859 H         1 UNK         0.0685 
     76 H76       -79.9352   26.4593  -70.0061 H         1 UNK         0.1434 
     77 H77       -75.8226   27.6327  -70.3314 H         1 UNK         0.1329 
     78 H78       -78.8837   30.6198  -70.0704 H         1 UNK         0.1335 
     79 H79       -76.4681   31.1631  -69.5926 H         1 UNK         0.0680 
     80 H80       -75.2471   29.9349  -69.8091 H         1 UNK         0.0680 
     81 H81       -73.5828   30.7242  -71.2882 H         1 UNK         0.1032 
     82 H82       -74.1497   32.3680  -71.1137 H         1 UNK         0.1032 
     83 H83       -74.0718   32.7079  -73.5613 H         1 UNK         0.0461 
     84 H84       -70.8357   33.9093  -72.7710 H         1 UNK         0.3453 
     85 H85       -72.5095   34.2834  -73.0869 H         1 UNK         0.3453 
     86 H86       -74.2627   29.9982  -73.7773 H         1 UNK         0.2984 
     87 H87       -74.5342   29.0249  -75.6645 H         1 UNK         0.0554 
     88 H88       -74.6740   29.1461  -78.1115 H         1 UNK         0.0847 
     89 H89       -73.3543   30.3085  -78.1833 H         1 UNK         0.0847 
     90 H90       -74.8930   30.7640  -77.4748 H         1 UNK         0.0847 
     91 H91       -72.5352   28.1188  -77.3059 H         1 UNK         0.3141 
     92 H92       -70.4383   26.9946  -76.5971 H         1 UNK         0.0743 
     93 H93       -70.9978   25.5438  -73.9447 H         1 UNK         0.0784 
     94 H94       -69.7230   25.1328  -75.0911 H         1 UNK         0.0784 
     95 H95       -69.6744   26.6671  -74.2357 H         1 UNK         0.0784 
     96 H96       -72.9610   25.5802  -76.0246 H         1 UNK         0.3213 
     97 H97       -72.9064   24.1611  -79.2456 H         1 UNK         0.0855 
     98 H98       -72.9800   22.5549  -76.6291 H         1 UNK         0.0814 
     99 H99       -71.9266   22.2224  -77.9978 H         1 UNK         0.0814 
    100 H100      -73.6654   22.0472  -78.1724 H         1 UNK         0.0814 
    101 H101      -74.8455   24.0978  -77.1366 H         1 UNK         0.3105 
    102 H102      -75.8310   27.3755  -77.0280 H         1 UNK         0.0547 
    103 H103      -76.9803   27.0327  -79.2178 H         1 UNK         0.0837 
    104 H104      -77.4804   25.4239  -78.7136 H         1 UNK         0.0837 
    105 H105      -78.0979   26.8481  -77.8756 H         1 UNK         0.0837 
    106 H106      -77.3994   25.3044  -76.1533 H         1 UNK         0.3020 
    107 H107      -75.5707   24.1233  -73.3562 H         1 UNK         0.1245 
    108 H108      -77.9757   25.9999  -73.6465 H         1 UNK         0.0781 
    109 H109      -76.5851   26.2670  -72.6395 H         1 UNK         0.0781 
    110 H110      -76.3377   25.3149  -70.2095 H         1 UNK         0.0836 
    111 H111      -77.8025   24.9085  -69.3505 H         1 UNK         0.0836 
    112 H112      -78.1432   23.6364  -74.6267 H         1 UNK         0.3022 
    113 H113      -77.1166   20.7474  -76.4053 H         1 UNK         0.0747 
    114 H114      -78.7791   19.5785  -74.9708 H         1 UNK         0.0793 
    115 H115      -77.2795   19.8272  -74.0928 H         1 UNK         0.0793 
    116 H116      -78.6657   20.8551  -73.7578 H         1 UNK         0.0793 
    117 H117      -79.6679   21.9556  -75.7375 H         1 UNK         0.3047 
    118 H118      -79.7411   24.2099  -78.4704 H         1 UNK         0.0822 
    119 H119      -81.8086   22.9988  -79.0881 H         1 UNK         0.0807 
    120 H120      -81.3313   21.6128  -78.1060 H         1 UNK         0.0807 
    121 H121      -80.4067   22.0442  -79.5378 H         1 UNK         0.0807 
    122 H122      -81.7932   23.6399  -76.6608 H         1 UNK         0.2946 
    123 H123      -82.2611   25.5596  -75.1999 H         1 UNK         0.1144 
    124 H124      -80.6516   23.8013  -73.2501 H         1 UNK         0.0793 
    125 H125      -82.0275   23.2726  -74.2082 H         1 UNK         0.0793 
    126 H126      -82.2572   24.4555  -72.9353 H         1 UNK         0.0793 
    127 H127      -80.4383   26.2486  -73.0695 H         1 UNK         0.2896 
@<TRIPOS>BOND
     1    1    2 1    
     2    1   67 1    
     3    1   68 1    
     4    1   69 1    
     5    2    3 2    
     6    2    4 am   BACKBONE|DICT|INTERRES
     7    4    5 1    
     8    4   70 1    
     9    5    6 1    
    10    5   65 1    
    11    5   71 1    
    12    6    7 1    
    13    6   72 1    
    14    6   73 1    
    15    7    8 1    
    16    8    9 1    
    17    8   74 1    
    18    8   75 1    
    19    9   10 ar   
    20    9   14 ar   
    21   10   11 ar   
    22   10   76 1    
    23   11   12 ar   
    24   11   48 1    
    25   12   13 ar   
    26   12   77 1    
    27   13   14 ar   
    28   13   15 1    
    29   14   78 1    
    30   15   16 1    
    31   15   79 1    
    32   15   80 1    
    33   16   17 1    
    34   17   18 1    
    35   17   81 1    
    36   17   82 1    
    37   18   19 1    
    38   18   22 1    
    39   18   83 1    
    40   19   20 am   BACKBONE|DICT|INTERRES
    41   19   21 2    
    42   20   84 1    
    43   20   85 1    
    44   22   23 am   BACKBONE|DICT|INTERRES
    45   22   86 1    
    46   23   24 2    
    47   23   25 1    
    48   25   26 1    
    49   25   27 1    
    50   25   87 1    
    51   26   88 1    
    52   26   89 1    
    53   26   90 1    
    54   27   28 am   BACKBONE|DICT|INTERRES
    55   27   91 1    
    56   28   29 2    
    57   28   30 1    
    58   30   31 1    
    59   30   32 1    
    60   30   92 1    
    61   31   93 1    
    62   31   94 1    
    63   31   95 1    
    64   32   33 am   BACKBONE|DICT|INTERRES
    65   32   96 1    
    66   33   34 2    
    67   33   35 1    
    68   35   36 1    
    69   35   37 1    
    70   35   97 1    
    71   36   98 1    
    72   36   99 1    
    73   36  100 1    
    74   37   38 am   BACKBONE|DICT|INTERRES
    75   37  101 1    
    76   38   39 2    
    77   38   40 1    
    78   40   41 1    
    79   40   42 1    
    80   40  102 1    
    81   41  103 1    
    82   41  104 1    
    83   41  105 1    
    84   42   43 am   BACKBONE|DICT|INTERRES
    85   42  106 1    
    86   43   44 2    
    87   43   45 1    
    88   45   46 1    
    89   45   49 1    
    90   45  107 1    
    91   46   47 1    
    92   46  108 1    
    93   46  109 1    
    94   47   48 1    
    95   48  110 1    
    96   48  111 1    
    97   49   50 am   BACKBONE|DICT|INTERRES
    98   49  112 1    
    99   50   51 2    
   100   50   52 1    
   101   52   53 1    
   102   52   54 1    
   103   52  113 1    
   104   53  114 1    
   105   53  115 1    
   106   53  116 1    
   107   54   55 am   BACKBONE|DICT|INTERRES
   108   54  117 1    
   109   55   56 2    
   110   55   57 1    
   111   57   58 1    
   112   57   59 1    
   113   57  118 1    
   114   58  119 1    
   115   58  120 1    
   116   58  121 1    
   117   59   60 am   BACKBONE|DICT|INTERRES
   118   59  122 1    
   119   60   61 2    
   120   60   62 1    
   121   62   63 1    
   122   62   64 1    
   123   62  123 1    
   124   63  124 1    
   125   63  125 1    
   126   63  126 1    
   127   64   65 am   BACKBONE|DICT|INTERRES
   128   64  127 1    
   129   65   66 2    
@<TRIPOS>SUBSTRUCTURE
     1 UNK         1 GROUP             0       ****    0 ROOT    
