@<TRIPOS>MOLECULE
3R135
127   129    1
SMALL
USER_CHARGES


@<TRIPOS>ATOM
      1 CA        -85.6583   25.7499  -73.7482 C.3       0 UNK        -0.1998 
      2 C         -85.0627   26.7303  -74.7471 C.2       0 UNK         0.4909 
      3 O         -85.6412   26.9487  -75.8118 O.2       0 UNK        -0.5240 
      4 N         -83.9077   27.3210  -74.4139 N.am      1 UNK        -0.4739 
      5 CA        -83.1777   28.2771  -75.2584 C.3       1 UNK         0.0864 
      6 C6        -82.2305   29.1667  -74.4133 C.3       11 UNK        -0.0881 
      7 S7        -80.9474   28.2374  -73.5042 S.3       11 UNK        -0.2682 
      8 C8        -80.1455   29.5930  -72.5876 C.3       11 UNK         0.0289 
      9 C9        -78.7412   29.2241  -72.1237 C.ar      11 UNK        -0.0687 
     10 C10       -78.5434   28.1437  -71.2579 C.ar      11 UNK        -0.0823 
     11 C11       -77.2568   27.8065  -70.8299 C.ar      11 UNK        -0.0830 
     12 C12       -76.1703   28.5724  -71.2514 C.ar      11 UNK        -0.1021 
     13 C13       -76.3415   29.6416  -72.1341 C.ar      11 UNK        -0.0753 
     14 C14       -77.6353   29.9631  -72.5621 C.ar      11 UNK        -0.0933 
     15 C15       -75.1426   30.4074  -72.6931 C.3       11 UNK         0.0166 
     16 S16       -73.9024   30.9041  -71.4490 S.3       11 UNK        -0.2615 
     17 C17       -72.7263   29.4995  -71.4278 C.3       11 UNK        -0.0865 
     18 CA        -71.5446   29.6826  -72.4167 C.3       10 UNK         0.0862 
     19 C         -70.3312   28.7711  -72.0590 C.2       10 UNK         0.5551 
     20 N         -69.7222   28.0537  -72.9966 N.am      10 UNK        -0.7319 
     21 O         -69.9182   28.7243  -70.9028 O.2       10 UNK        -0.5018 
     22 N         -71.9998   29.5205  -73.8055 N.am      10 UNK        -0.4509 
     23 C         -71.5482   30.2253  -74.8483 C.2       10 UNK         0.4899 
     24 O         -70.7439   31.1542  -74.7530 O.2       10 UNK        -0.4839 
     25 CA        -72.0808   29.8020  -76.2313 C.3       9 UNK         0.0222 
     26 CB        -71.3076   30.4509  -77.3988 C.3       9 UNK        -0.1966 
     27 N         -72.1476   28.3446  -76.4062 N.am      9 UNK        -0.4218 
     28 C         -71.1368   27.4652  -76.3040 C.2       9 UNK         0.5020 
     29 O         -69.9866   27.7901  -76.0055 O.2       9 UNK        -0.5274 
     30 CA        -71.4353   25.9685  -76.5337 C.3       8 UNK         0.0270 
     31 CB        -71.1094   25.1587  -75.2668 C.3       8 UNK        -0.1976 
     32 N         -72.8151   25.6839  -76.9348 N.am      8 UNK        -0.4313 
     33 C         -73.3387   25.9189  -78.1454 C.2       8 UNK         0.5041 
     34 O         -72.6864   26.3242  -79.1077 O.2       8 UNK        -0.5577 
     35 CA        -74.8605   25.7267  -78.2867 C.3       7 UNK         0.0284 
     36 CB        -75.1999   24.2708  -78.6423 C.3       7 UNK        -0.1958 
     37 N         -75.5999   26.1266  -77.0837 N.am      7 UNK        -0.4454 
     38 C         -75.6125   27.3653  -76.5692 C.2       7 UNK         0.5089 
     39 O         -75.0388   28.3257  -77.0809 O.2       7 UNK        -0.5125 
     40 CA        -76.3285   27.5500  -75.2259 C.3       6 UNK         0.0408 
     41 CB        -77.8481   27.6463  -75.4177 C.3       6 UNK        -0.1791 
     42 N         -76.0012   26.4710  -74.2918 N.am      6 UNK        -0.4762 
     43 C         -74.8240   26.3437  -73.6601 C.2       6 UNK         0.5007 
     44 O         -73.9062   27.1614  -73.7589 O.2       6 UNK        -0.5032 
     45 CA        -74.6052   25.0604  -72.8265 C.3       5 UNK         0.0783 
     46 C46       -74.9279   25.2461  -71.3192 C.3       11 UNK        -0.0857 
     47 S47       -76.7038   25.0978  -70.8907 S.3       11 UNK        -0.2512 
     48 C48       -77.0319   26.6067  -69.9249 C.3       11 UNK         0.0225 
     49 N         -75.2938   23.8962  -73.3900 N.am      5 UNK        -0.4615 
     50 C         -75.0029   23.3162  -74.5602 C.2       4 UNK         0.5053 
     51 O         -74.0666   23.6620  -75.2781 O.2       4 UNK        -0.5105 
     52 CA        -75.9584   22.2050  -75.0318 C.3       4 UNK         0.0263 
     53 CB        -75.5458   20.8496  -74.4372 C.3       4 UNK        -0.1981 
     54 N         -77.3646   22.4816  -74.7079 N.am      4 UNK        -0.4224 
     55 C         -78.0467   23.5401  -75.1668 C.2       3 UNK         0.4895 
     56 O         -77.5621   24.3763  -75.9320 O.2       3 UNK        -0.5091 
     57 CA        -79.4715   23.7322  -74.6196 C.3       3 UNK         0.0250 
     58 CB        -79.4252   24.3072  -73.1939 C.3       3 UNK        -0.1996 
     59 N         -80.2639   24.6398  -75.4499 N.am      3 UNK        -0.4254 
     60 C         -80.7540   24.3498  -76.6629 C.2       2 UNK         0.5004 
     61 O         -80.6332   23.2484  -77.2027 O.2       2 UNK        -0.5226 
     62 CA        -81.5393   25.4713  -77.3654 C.3       2 UNK         0.0269 
     63 CB        -82.5301   24.9443  -78.4220 C.3       2 UNK        -0.1926 
     64 N         -82.2554   26.2847  -76.3806 N.am      2 UNK        -0.4687 
     65 C         -82.4360   27.6102  -76.4415 C.2       1 UNK         0.5165 
     66 O         -82.0371   28.3078  -77.3753 O.2       1 UNK        -0.5079 
     67 H67       -85.7584   24.7648  -74.2032 H         1 UNK         0.0900 
     68 H68       -85.0403   25.6505  -72.8561 H         1 UNK         0.0900 
     69 H69       -86.6481   26.0848  -73.4391 H         1 UNK         0.0900 
     70 H70       -83.4729   27.1126  -73.5254 H         1 UNK         0.2959 
     71 H71       -83.9167   28.9411  -75.7132 H         1 UNK         0.1079 
     72 H72       -81.7423   29.9093  -75.0480 H         1 UNK         0.0837 
     73 H73       -82.8170   29.7367  -73.6908 H         1 UNK         0.0837 
     74 H74       -80.1116   30.4816  -73.2199 H         1 UNK         0.0685 
     75 H75       -80.7570   29.8520  -71.7222 H         1 UNK         0.0685 
     76 H76       -79.3914   27.5568  -70.9321 H         1 UNK         0.1434 
     77 H77       -75.1874   28.3125  -70.9008 H         1 UNK         0.1329 
     78 H78       -77.7813   30.7840  -73.2506 H         1 UNK         0.1335 
     79 H79       -74.6648   29.8069  -73.4649 H         1 UNK         0.0680 
     80 H80       -75.4846   31.3162  -73.1903 H         1 UNK         0.0680 
     81 H81       -72.3654   29.4240  -70.4004 H         1 UNK         0.1032 
     82 H82       -73.2286   28.5568  -71.6334 H         1 UNK         0.1032 
     83 H83       -71.1725   30.7003  -72.2860 H         1 UNK         0.0461 
     84 H84       -68.9356   27.4807  -72.7370 H         1 UNK         0.3453 
     85 H85       -69.9993   28.1126  -73.9691 H         1 UNK         0.3453 
     86 H86       -72.6358   28.7460  -73.9697 H         1 UNK         0.2984 
     87 H87       -73.1097   30.1609  -76.2793 H         1 UNK         0.0554 
     88 H88       -71.3553   31.5391  -77.3440 H         1 UNK         0.0847 
     89 H89       -71.7259   30.1579  -78.3618 H         1 UNK         0.0847 
     90 H90       -70.2538   30.1705  -77.3914 H         1 UNK         0.0847 
     91 H91       -73.0695   27.9909  -76.6388 H         1 UNK         0.3141 
     92 H92       -70.7732   25.6294  -77.3330 H         1 UNK         0.0743 
     93 H93       -71.7134   25.4814  -74.4188 H         1 UNK         0.0784 
     94 H94       -71.2836   24.0933  -75.4188 H         1 UNK         0.0784 
     95 H95       -70.0627   25.2761  -74.9828 H         1 UNK         0.0784 
     96 H96       -73.4095   25.2487  -76.2343 H         1 UNK         0.3213 
     97 H97       -75.1986   26.3659  -79.1050 H         1 UNK         0.0855 
     98 H98       -74.8653   23.5774  -77.8710 H         1 UNK         0.0814 
     99 H99       -74.7176   23.9764  -79.5753 H         1 UNK         0.0814 
    100 H100      -76.2735   24.1332  -78.7733 H         1 UNK         0.0814 
    101 H101      -76.1525   25.4096  -76.6174 H         1 UNK         0.3105 
    102 H102      -75.9916   28.4902  -74.7905 H         1 UNK         0.0547 
    103 H103      -78.1178   28.5803  -75.9115 H         1 UNK         0.0837 
    104 H104      -78.2474   26.8349  -76.0246 H         1 UNK         0.0837 
    105 H105      -78.3571   27.6262  -74.4572 H         1 UNK         0.0837 
    106 H106      -76.6796   25.7290  -74.2015 H         1 UNK         0.3020 
    107 H107      -73.5350   24.8528  -72.8956 H         1 UNK         0.1245 
    108 H108      -74.5137   26.1811  -70.9429 H         1 UNK         0.0781 
    109 H109      -74.4107   24.4678  -70.7560 H         1 UNK         0.0781 
    110 H110      -76.2106   26.7931  -69.2312 H         1 UNK         0.0836 
    111 H111      -77.9158   26.4404  -69.3074 H         1 UNK         0.0836 
    112 H112      -76.0819   23.5567  -72.8579 H         1 UNK         0.3022 
    113 H113      -75.8759   22.1399  -76.1185 H         1 UNK         0.0747 
    114 H114      -76.1588   20.0395  -74.8327 H         1 UNK         0.0793 
    115 H115      -74.5083   20.6169  -74.6822 H         1 UNK         0.0793 
    116 H116      -75.6341   20.8389  -73.3500 H         1 UNK         0.0793 
    117 H117      -77.8227   21.8375  -74.0788 H         1 UNK         0.3047 
    118 H118      -79.9689   22.7602  -74.5975 H         1 UNK         0.0822 
    119 H119      -80.4278   24.4419  -72.7875 H         1 UNK         0.0807 
    120 H120      -78.9226   25.2754  -73.1617 H         1 UNK         0.0807 
    121 H121      -78.8944   23.6395  -72.5145 H         1 UNK         0.0807 
    122 H122      -80.3830   25.5798  -75.1013 H         1 UNK         0.2946 
    123 H123      -80.7921   26.0874  -77.8713 H         1 UNK         0.1144 
    124 H124      -83.0490   25.7626  -78.9216 H         1 UNK         0.0793 
    125 H125      -83.2826   24.2933  -77.9758 H         1 UNK         0.0793 
    126 H126      -82.0151   24.3715  -79.1944 H         1 UNK         0.0793 
    127 H127      -82.6236   25.7937  -75.5775 H         1 UNK         0.2896 
@<TRIPOS>BOND
     1    1    2 1    
     2    1   67 1    
     3    1   68 1    
     4    1   69 1    
     5    2    3 2    
     6    2    4 am   BACKBONE|DICT|INTERRES
     7    4    5 1    
     8    4   70 1    
     9    5    6 1    
    10    5   65 1    
    11    5   71 1    
    12    6    7 1    
    13    6   72 1    
    14    6   73 1    
    15    7    8 1    
    16    8    9 1    
    17    8   74 1    
    18    8   75 1    
    19    9   10 ar   
    20    9   14 ar   
    21   10   11 ar   
    22   10   76 1    
    23   11   12 ar   
    24   11   48 1    
    25   12   13 ar   
    26   12   77 1    
    27   13   14 ar   
    28   13   15 1    
    29   14   78 1    
    30   15   16 1    
    31   15   79 1    
    32   15   80 1    
    33   16   17 1    
    34   17   18 1    
    35   17   81 1    
    36   17   82 1    
    37   18   19 1    
    38   18   22 1    
    39   18   83 1    
    40   19   20 am   BACKBONE|DICT|INTERRES
    41   19   21 2    
    42   20   84 1    
    43   20   85 1    
    44   22   23 am   BACKBONE|DICT|INTERRES
    45   22   86 1    
    46   23   24 2    
    47   23   25 1    
    48   25   26 1    
    49   25   27 1    
    50   25   87 1    
    51   26   88 1    
    52   26   89 1    
    53   26   90 1    
    54   27   28 am   BACKBONE|DICT|INTERRES
    55   27   91 1    
    56   28   29 2    
    57   28   30 1    
    58   30   31 1    
    59   30   32 1    
    60   30   92 1    
    61   31   93 1    
    62   31   94 1    
    63   31   95 1    
    64   32   33 am   BACKBONE|DICT|INTERRES
    65   32   96 1    
    66   33   34 2    
    67   33   35 1    
    68   35   36 1    
    69   35   37 1    
    70   35   97 1    
    71   36   98 1    
    72   36   99 1    
    73   36  100 1    
    74   37   38 am   BACKBONE|DICT|INTERRES
    75   37  101 1    
    76   38   39 2    
    77   38   40 1    
    78   40   41 1    
    79   40   42 1    
    80   40  102 1    
    81   41  103 1    
    82   41  104 1    
    83   41  105 1    
    84   42   43 am   BACKBONE|DICT|INTERRES
    85   42  106 1    
    86   43   44 2    
    87   43   45 1    
    88   45   46 1    
    89   45   49 1    
    90   45  107 1    
    91   46   47 1    
    92   46  108 1    
    93   46  109 1    
    94   47   48 1    
    95   48  110 1    
    96   48  111 1    
    97   49   50 am   BACKBONE|DICT|INTERRES
    98   49  112 1    
    99   50   51 2    
   100   50   52 1    
   101   52   53 1    
   102   52   54 1    
   103   52  113 1    
   104   53  114 1    
   105   53  115 1    
   106   53  116 1    
   107   54   55 am   BACKBONE|DICT|INTERRES
   108   54  117 1    
   109   55   56 2    
   110   55   57 1    
   111   57   58 1    
   112   57   59 1    
   113   57  118 1    
   114   58  119 1    
   115   58  120 1    
   116   58  121 1    
   117   59   60 am   BACKBONE|DICT|INTERRES
   118   59  122 1    
   119   60   61 2    
   120   60   62 1    
   121   62   63 1    
   122   62   64 1    
   123   62  123 1    
   124   63  124 1    
   125   63  125 1    
   126   63  126 1    
   127   64   65 am   BACKBONE|DICT|INTERRES
   128   64  127 1    
   129   65   66 2    
@<TRIPOS>SUBSTRUCTURE
     1 UNK         1 GROUP             0       ****    0 ROOT    
