@<TRIPOS>MOLECULE
3R135
127   129    1
SMALL
USER_CHARGES


@<TRIPOS>ATOM
      1 CA        -81.8653   21.4512  -72.4625 C.3       0 UNK        -0.1998 
      2 C         -82.2511   22.9210  -72.4015 C.2       0 UNK         0.4909 
      3 O         -83.4137   23.2616  -72.6192 O.2       0 UNK        -0.5240 
      4 N         -81.2798   23.8003  -72.1290 N.am      1 UNK        -0.4739 
      5 CA        -81.4074   25.2608  -72.0076 C.3       1 UNK         0.0864 
      6 C6        -80.2509   25.8467  -71.1485 C.3       11 UNK        -0.0881 
      7 S7        -78.5854   25.3613  -71.7281 S.3       11 UNK        -0.2682 
      8 C8        -77.5101   26.3809  -70.6651 C.3       11 UNK         0.0289 
      9 C9        -77.2367   27.8047  -71.1549 C.ar      11 UNK        -0.0687 
     10 C10       -77.9714   28.4208  -72.1771 C.ar      11 UNK        -0.0823 
     11 C11       -77.6728   29.7227  -72.5884 C.ar      11 UNK        -0.0830 
     12 C12       -76.6362   30.4226  -71.9646 C.ar      11 UNK        -0.1021 
     13 C13       -75.9009   29.8270  -70.9371 C.ar      11 UNK        -0.0753 
     14 C14       -76.2055   28.5219  -70.5411 C.ar      11 UNK        -0.0933 
     15 C15       -74.7878   30.5890  -70.2361 C.3       11 UNK         0.0166 
     16 S16       -73.1832   30.3105  -71.0429 S.3       11 UNK        -0.2615 
     17 C17       -73.0347   31.8127  -72.0743 C.3       11 UNK        -0.0865 
     18 CA        -71.9134   31.7286  -73.1422 C.3       10 UNK         0.0862 
     19 C         -70.4946   31.6434  -72.4999 C.2       10 UNK         0.5551 
     20 N         -69.7852   30.5238  -72.5987 N.am      10 UNK        -0.7319 
     21 O         -70.0302   32.6173  -71.9120 O.2       10 UNK        -0.5018 
     22 N         -72.2036   30.6867  -74.1356 N.am      10 UNK        -0.4509 
     23 C         -71.5897   30.5631  -75.3192 C.2       10 UNK         0.4899 
     24 O         -70.8219   31.4114  -75.7766 O.2       10 UNK        -0.4839 
     25 CA        -71.8757   29.2838  -76.1319 C.3       9 UNK         0.0222 
     26 CB        -70.6358   28.7983  -76.9108 C.3       9 UNK        -0.1966 
     27 N         -72.4503   28.1773  -75.3554 N.am      9 UNK        -0.4218 
     28 C         -71.9219   27.5452  -74.2951 C.2       9 UNK         0.5020 
     29 O         -70.8663   27.8727  -73.7495 O.2       9 UNK        -0.5274 
     30 CA        -72.7144   26.3416  -73.7553 C.3       8 UNK         0.0270 
     31 CB        -73.8906   26.8103  -72.8810 C.3       8 UNK        -0.1976 
     32 N         -73.2125   25.4718  -74.8252 N.am      8 UNK        -0.4313 
     33 C         -72.4381   24.7587  -75.6575 C.2       8 UNK         0.5041 
     34 O         -71.2115   24.6920  -75.5690 O.2       8 UNK        -0.5577 
     35 CA        -73.1484   24.0039  -76.7927 C.3       7 UNK         0.0284 
     36 CB        -73.7311   22.6704  -76.2947 C.3       7 UNK        -0.1958 
     37 N         -74.2032   24.8168  -77.4010 N.am      7 UNK        -0.4454 
     38 C         -73.9831   25.8027  -78.2829 C.2       7 UNK         0.5089 
     39 O         -72.8750   26.0741  -78.7453 O.2       7 UNK        -0.5125 
     40 CA        -75.2014   26.6374  -78.7196 C.3       6 UNK         0.0408 
     41 CB        -75.8080   26.0695  -80.0118 C.3       6 UNK        -0.1791 
     42 N         -76.2392   26.7251  -77.6881 N.am      6 UNK        -0.4762 
     43 C         -76.1003   27.4057  -76.5385 C.2       6 UNK         0.5007 
     44 O         -75.0880   28.0420  -76.2498 O.2       6 UNK        -0.5032 
     45 CA        -77.2447   27.2982  -75.5069 C.3       5 UNK         0.0783 
     46 C46       -78.3156   28.3957  -75.7199 C.3       11 UNK        -0.0857 
     47 S47       -77.7367   30.0843  -75.3324 S.3       11 UNK        -0.2512 
     48 C48       -78.4796   30.3802  -73.6973 C.3       11 UNK         0.0225 
     49 N         -77.8423   25.9571  -75.4964 N.am      5 UNK        -0.4615 
     50 C         -77.1654   24.8324  -75.2130 C.2       4 UNK         0.5053 
     51 O         -75.9961   24.8369  -74.8292 O.2       4 UNK        -0.5105 
     52 CA        -77.8480   23.4727  -75.4655 C.3       4 UNK         0.0263 
     53 CB        -78.1522   22.7378  -74.1525 C.3       4 UNK        -0.1981 
     54 N         -79.0690   23.5490  -76.2682 N.am      4 UNK        -0.4224 
     55 C         -79.1226   23.8974  -77.5609 C.2       3 UNK         0.4895 
     56 O         -78.1307   24.1631  -78.2400 O.2       3 UNK        -0.5091 
     57 CA        -80.5265   24.0257  -78.1788 C.3       3 UNK         0.0250 
     58 CB        -80.9538   22.6974  -78.8229 C.3       3 UNK        -0.1996 
     59 N         -81.5559   24.4603  -77.2235 N.am      3 UNK        -0.4254 
     60 C         -81.5395   25.6267  -76.5602 C.2       2 UNK         0.5004 
     61 O         -80.6321   26.4501  -76.6680 O.2       2 UNK        -0.5226 
     62 CA        -82.7080   25.9095  -75.6018 C.3       2 UNK         0.0269 
     63 CB        -84.0462   25.3140  -76.0819 C.3       2 UNK        -0.1926 
     64 N         -82.4116   25.4074  -74.2599 N.am      2 UNK        -0.4687 
     65 C         -81.6046   25.9906  -73.3633 C.2       1 UNK         0.5165 
     66 O         -81.0504   27.0708  -73.5669 O.2       1 UNK        -0.5079 
     67 H67       -82.4300   20.8849  -71.7224 H         1 UNK         0.0900 
     68 H68       -82.0910   21.0444  -73.4479 H         1 UNK         0.0900 
     69 H69       -80.8037   21.2995  -72.2681 H         1 UNK         0.0900 
     70 H70       -80.3416   23.4602  -71.9705 H         1 UNK         0.2959 
     71 H71       -82.3305   25.4547  -71.4565 H         1 UNK         0.1079 
     72 H72       -80.3554   25.4896  -70.1228 H         1 UNK         0.0837 
     73 H73       -80.3189   26.9339  -71.0805 H         1 UNK         0.0837 
     74 H74       -77.9314   26.4219  -69.6598 H         1 UNK         0.0685 
     75 H75       -76.5566   25.8578  -70.5772 H         1 UNK         0.0685 
     76 H76       -78.7752   27.8945  -72.6693 H         1 UNK         0.1434 
     77 H77       -76.4049   31.4317  -72.2767 H         1 UNK         0.1329 
     78 H78       -75.6326   28.0607  -69.7480 H         1 UNK         0.1335 
     79 H79       -74.7157   30.2625  -69.1975 H         1 UNK         0.0680 
     80 H80       -75.0161   31.6555  -70.1998 H         1 UNK         0.0680 
     81 H81       -73.9899   31.9987  -72.5672 H         1 UNK         0.1032 
     82 H82       -72.8687   32.6701  -71.4192 H         1 UNK         0.1032 
     83 H83       -71.9296   32.6773  -73.6823 H         1 UNK         0.0461 
     84 H84       -68.8684   30.4801  -72.1839 H         1 UNK         0.3453 
     85 H85       -70.1746   29.7059  -73.0549 H         1 UNK         0.3453 
     86 H86       -72.8039   29.9375  -73.8246 H         1 UNK         0.2984 
     87 H87       -72.6376   29.5580  -76.8628 H         1 UNK         0.0554 
     88 H88       -70.2806   29.5614  -77.6043 H         1 UNK         0.0847 
     89 H89       -70.8627   27.9091  -77.4997 H         1 UNK         0.0847 
     90 H90       -69.8095   28.5554  -76.2420 H         1 UNK         0.0847 
     91 H91       -73.3764   27.8887  -75.6695 H         1 UNK         0.3141 
     92 H92       -72.0405   25.7497  -73.1327 H         1 UNK         0.0743 
     93 H93       -73.5355   27.3978  -72.0336 H         1 UNK         0.0784 
     94 H94       -74.5904   27.4349  -73.4369 H         1 UNK         0.0784 
     95 H95       -74.4492   25.9657  -72.4769 H         1 UNK         0.0784 
     96 H96       -74.2233   25.3918  -74.9185 H         1 UNK         0.3213 
     97 H97       -72.4030   23.7757  -77.5582 H         1 UNK         0.0855 
     98 H98       -74.4619   22.8111  -75.4985 H         1 UNK         0.0814 
     99 H99       -72.9424   22.0300  -75.8978 H         1 UNK         0.0814 
    100 H100      -74.2159   22.1225  -77.1028 H         1 UNK         0.0814 
    101 H101      -75.1424   24.6860  -77.0539 H         1 UNK         0.3105 
    102 H102      -74.8491   27.6499  -78.9286 H         1 UNK         0.0547 
    103 H103      -76.6441   26.6761  -80.3599 H         1 UNK         0.0837 
    104 H104      -75.0675   26.0495  -80.8126 H         1 UNK         0.0837 
    105 H105      -76.1666   25.0485  -79.8766 H         1 UNK         0.0837 
    106 H106      -77.0794   26.1793  -77.8388 H         1 UNK         0.3020 
    107 H107      -76.7966   27.4461  -74.5225 H         1 UNK         0.1245 
    108 H108      -79.1904   28.1826  -75.1054 H         1 UNK         0.0781 
    109 H109      -78.6775   28.3846  -76.7497 H         1 UNK         0.0781 
    110 H110      -79.5130   30.0294  -73.6829 H         1 UNK         0.0836 
    111 H111      -78.5275   31.4568  -73.5268 H         1 UNK         0.0836 
    112 H112      -78.8025   25.8981  -75.8181 H         1 UNK         0.3022 
    113 H113      -77.1271   22.8693  -76.0213 H         1 UNK         0.0747 
    114 H114      -78.4243   21.6982  -74.3360 H         1 UNK         0.0793 
    115 H115      -77.2849   22.7331  -73.4903 H         1 UNK         0.0793 
    116 H116      -78.9738   23.2065  -73.6155 H         1 UNK         0.0793 
    117 H117      -79.9394   23.3615  -75.7932 H         1 UNK         0.3047 
    118 H118      -80.4653   24.7831  -78.9634 H         1 UNK         0.0822 
    119 H119      -80.2151   22.3630  -79.5531 H         1 UNK         0.0807 
    120 H120      -81.9029   22.7983  -79.3497 H         1 UNK         0.0807 
    121 H121      -81.0621   21.9039  -78.0824 H         1 UNK         0.0807 
    122 H122      -82.3383   23.8377  -77.0826 H         1 UNK         0.2946 
    123 H123      -82.8225   26.9952  -75.5543 H         1 UNK         0.1144 
    124 H124      -84.8720   25.6699  -75.4653 H         1 UNK         0.0793 
    125 H125      -84.0562   24.2242  -76.0409 H         1 UNK         0.0793 
    126 H126      -84.2642   25.6115  -77.1087 H         1 UNK         0.0793 
    127 H127      -82.8628   24.5433  -73.9751 H         1 UNK         0.2896 
@<TRIPOS>BOND
     1    1    2 1    
     2    1   67 1    
     3    1   68 1    
     4    1   69 1    
     5    2    3 2    
     6    2    4 am   BACKBONE|DICT|INTERRES
     7    4    5 1    
     8    4   70 1    
     9    5    6 1    
    10    5   65 1    
    11    5   71 1    
    12    6    7 1    
    13    6   72 1    
    14    6   73 1    
    15    7    8 1    
    16    8    9 1    
    17    8   74 1    
    18    8   75 1    
    19    9   10 ar   
    20    9   14 ar   
    21   10   11 ar   
    22   10   76 1    
    23   11   12 ar   
    24   11   48 1    
    25   12   13 ar   
    26   12   77 1    
    27   13   14 ar   
    28   13   15 1    
    29   14   78 1    
    30   15   16 1    
    31   15   79 1    
    32   15   80 1    
    33   16   17 1    
    34   17   18 1    
    35   17   81 1    
    36   17   82 1    
    37   18   19 1    
    38   18   22 1    
    39   18   83 1    
    40   19   20 am   BACKBONE|DICT|INTERRES
    41   19   21 2    
    42   20   84 1    
    43   20   85 1    
    44   22   23 am   BACKBONE|DICT|INTERRES
    45   22   86 1    
    46   23   24 2    
    47   23   25 1    
    48   25   26 1    
    49   25   27 1    
    50   25   87 1    
    51   26   88 1    
    52   26   89 1    
    53   26   90 1    
    54   27   28 am   BACKBONE|DICT|INTERRES
    55   27   91 1    
    56   28   29 2    
    57   28   30 1    
    58   30   31 1    
    59   30   32 1    
    60   30   92 1    
    61   31   93 1    
    62   31   94 1    
    63   31   95 1    
    64   32   33 am   BACKBONE|DICT|INTERRES
    65   32   96 1    
    66   33   34 2    
    67   33   35 1    
    68   35   36 1    
    69   35   37 1    
    70   35   97 1    
    71   36   98 1    
    72   36   99 1    
    73   36  100 1    
    74   37   38 am   BACKBONE|DICT|INTERRES
    75   37  101 1    
    76   38   39 2    
    77   38   40 1    
    78   40   41 1    
    79   40   42 1    
    80   40  102 1    
    81   41  103 1    
    82   41  104 1    
    83   41  105 1    
    84   42   43 am   BACKBONE|DICT|INTERRES
    85   42  106 1    
    86   43   44 2    
    87   43   45 1    
    88   45   46 1    
    89   45   49 1    
    90   45  107 1    
    91   46   47 1    
    92   46  108 1    
    93   46  109 1    
    94   47   48 1    
    95   48  110 1    
    96   48  111 1    
    97   49   50 am   BACKBONE|DICT|INTERRES
    98   49  112 1    
    99   50   51 2    
   100   50   52 1    
   101   52   53 1    
   102   52   54 1    
   103   52  113 1    
   104   53  114 1    
   105   53  115 1    
   106   53  116 1    
   107   54   55 am   BACKBONE|DICT|INTERRES
   108   54  117 1    
   109   55   56 2    
   110   55   57 1    
   111   57   58 1    
   112   57   59 1    
   113   57  118 1    
   114   58  119 1    
   115   58  120 1    
   116   58  121 1    
   117   59   60 am   BACKBONE|DICT|INTERRES
   118   59  122 1    
   119   60   61 2    
   120   60   62 1    
   121   62   63 1    
   122   62   64 1    
   123   62  123 1    
   124   63  124 1    
   125   63  125 1    
   126   63  126 1    
   127   64   65 am   BACKBONE|DICT|INTERRES
   128   64  127 1    
   129   65   66 2    
@<TRIPOS>SUBSTRUCTURE
     1 UNK         1 GROUP             0       ****    0 ROOT    
