@<TRIPOS>MOLECULE
3R135
127   129    1
SMALL
USER_CHARGES


@<TRIPOS>ATOM
      1 CA        -75.3747   24.1773  -73.0326 C.3       0 UNK        -0.1998 
      2 C         -76.7541   24.0188  -72.4121 C.2       0 UNK         0.4909 
      3 O         -76.9341   23.1806  -71.5282 O.2       0 UNK        -0.5240 
      4 N         -77.7290   24.8181  -72.8644 N.am      1 UNK        -0.4739 
      5 CA        -79.1105   24.8053  -72.3569 C.3       1 UNK         0.0864 
      6 C6        -79.8167   26.1782  -72.5415 C.3       11 UNK        -0.0881 
      7 S7        -79.6830   27.1921  -71.0326 S.3       11 UNK        -0.2682 
      8 C8        -79.5961   28.8834  -71.7097 C.3       11 UNK         0.0289 
      9 C9        -78.3104   29.1854  -72.4738 C.ar      11 UNK        -0.0687 
     10 C10       -78.3625   29.9958  -73.6129 C.ar      11 UNK        -0.0823 
     11 C11       -77.1990   30.2954  -74.3277 C.ar      11 UNK        -0.0830 
     12 C12       -75.9747   29.7827  -73.8928 C.ar      11 UNK        -0.1021 
     13 C13       -75.9045   28.9896  -72.7449 C.ar      11 UNK        -0.0753 
     14 C14       -77.0726   28.6956  -72.0395 C.ar      11 UNK        -0.0933 
     15 C15       -74.5657   28.4446  -72.2743 C.3       11 UNK         0.0166 
     16 S16       -73.8975   29.3171  -70.8150 S.3       11 UNK        -0.2615 
     17 C17       -73.9663   31.0919  -71.2720 C.3       11 UNK        -0.0865 
     18 CA        -72.7372   31.6206  -72.0593 C.3       10 UNK         0.0862 
     19 C         -71.4465   31.7067  -71.1906 C.2       10 UNK         0.5551 
     20 N         -70.3222   31.1235  -71.5922 N.am      10 UNK        -0.7319 
     21 O         -71.4608   32.3362  -70.1355 O.2       10 UNK        -0.5018 
     22 N         -72.5754   30.8969  -73.3244 N.am      10 UNK        -0.4509 
     23 C         -72.0697   31.3927  -74.4583 C.2       10 UNK         0.4899 
     24 O         -71.7508   32.5727  -74.6108 O.2       10 UNK        -0.4839 
     25 CA        -71.8935   30.3818  -75.6113 C.3       9 UNK         0.0222 
     26 CB        -70.8670   30.8521  -76.6631 C.3       9 UNK        -0.1966 
     27 N         -71.5748   29.0220  -75.1480 N.am      9 UNK        -0.4218 
     28 C         -70.5312   28.6374  -74.3994 C.2       9 UNK         0.5020 
     29 O         -69.6753   29.4162  -73.9773 O.2       9 UNK        -0.5274 
     30 CA        -70.4119   27.1459  -74.0278 C.3       8 UNK         0.0270 
     31 CB        -70.9166   26.9016  -72.5913 C.3       8 UNK        -0.1976 
     32 N         -71.0124   26.1808  -74.9655 N.am      8 UNK        -0.4313 
     33 C         -72.2997   26.0183  -75.3008 C.2       8 UNK         0.5041 
     34 O         -73.2067   26.7671  -74.9317 O.2       8 UNK        -0.5577 
     35 CA        -72.6162   24.8246  -76.2081 C.3       7 UNK         0.0284 
     36 CB        -72.3341   23.4878  -75.4920 C.3       7 UNK        -0.1958 
     37 N         -74.0179   24.8819  -76.6169 N.am      7 UNK        -0.4454 
     38 C         -74.5343   24.2870  -77.6949 C.2       7 UNK         0.5089 
     39 O         -73.8597   23.6352  -78.4935 O.2       7 UNK        -0.5125 
     40 CA        -76.0487   24.4160  -77.9473 C.3       6 UNK         0.0408 
     41 CB        -76.8196   23.2989  -77.2199 C.3       6 UNK        -0.1791 
     42 N         -76.6544   25.7268  -77.6747 N.am      6 UNK        -0.4762 
     43 C         -76.8223   26.3544  -76.5006 C.2       6 UNK         0.5007 
     44 O         -76.3583   25.9650  -75.4308 O.2       6 UNK        -0.5032 
     45 CA        -77.7527   27.5818  -76.5220 C.3       5 UNK         0.0783 
     46 C46       -77.0377   28.8132  -77.1299 C.3       11 UNK        -0.0857 
     47 S47       -78.0553   30.3196  -76.9744 S.3       11 UNK        -0.2512 
     48 C48       -77.2606   31.1697  -75.5727 C.3       11 UNK         0.0225 
     49 N         -79.0202   27.2802  -77.2037 N.am      5 UNK        -0.4615 
     50 C         -79.8712   26.3110  -76.8411 C.2       4 UNK         0.5053 
     51 O         -79.7138   25.6106  -75.8383 O.2       4 UNK        -0.5105 
     52 CA        -81.0706   26.0684  -77.7763 C.3       4 UNK         0.0263 
     53 CB        -80.5990   25.6648  -79.1854 C.3       4 UNK        -0.1981 
     54 N         -81.9007   24.9891  -77.2480 N.am      4 UNK        -0.4224 
     55 C         -82.8810   25.1270  -76.3509 C.2       3 UNK         0.4895 
     56 O         -83.3635   26.2098  -76.0167 O.2       3 UNK        -0.5091 
     57 CA        -83.3798   23.8341  -75.6799 C.3       3 UNK         0.0250 
     58 CB        -84.2179   22.9723  -76.6453 C.3       3 UNK        -0.1996 
     59 N         -82.2987   23.0644  -75.0432 N.am      3 UNK        -0.4254 
     60 C         -81.2671   22.4192  -75.6094 C.2       2 UNK         0.5004 
     61 O         -81.1084   22.3075  -76.8273 O.2       2 UNK        -0.5226 
     62 CA        -80.2066   21.8645  -74.6398 C.3       2 UNK         0.0269 
     63 CB        -79.1872   20.9413  -75.3315 C.3       2 UNK        -0.1926 
     64 N         -79.4919   22.9592  -73.9749 N.am      2 UNK        -0.4687 
     65 C         -79.9608   23.6470  -72.9242 C.2       1 UNK         0.5165 
     66 O         -81.0449   23.3902  -72.3950 O.2       1 UNK        -0.5079 
     67 H67       -75.1524   25.2251  -73.2395 H         1 UNK         0.0900 
     68 H68       -75.3174   23.6199  -73.9682 H         1 UNK         0.0900 
     69 H69       -74.6027   23.8006  -72.3596 H         1 UNK         0.0900 
     70 H70       -77.5273   25.4614  -73.6219 H         1 UNK         0.2959 
     71 H71       -79.0638   24.5895  -71.2868 H         1 UNK         0.1079 
     72 H72       -80.8824   26.0729  -72.7518 H         1 UNK         0.0837 
     73 H73       -79.4054   26.7168  -73.3957 H         1 UNK         0.0837 
     74 H74       -80.4681   29.0448  -72.3455 H         1 UNK         0.0685 
     75 H75       -79.6789   29.5916  -70.8845 H         1 UNK         0.0685 
     76 H76       -79.3105   30.3908  -73.9524 H         1 UNK         0.1434 
     77 H77       -75.0736   30.0060  -74.4460 H         1 UNK         0.1329 
     78 H78       -77.0120   28.0848  -71.1494 H         1 UNK         0.1335 
     79 H79       -74.6757   27.3876  -72.0280 H         1 UNK         0.0680 
     80 H80       -73.8386   28.4830  -73.0831 H         1 UNK         0.0680 
     81 H81       -74.0898   31.6645  -70.3510 H         1 UNK         0.1032 
     82 H82       -74.8763   31.2920  -71.8367 H         1 UNK         0.1032 
     83 H83       -72.9656   32.6578  -72.3121 H         1 UNK         0.0461 
     84 H84       -70.2721   30.6172  -72.4691 H         1 UNK         0.3453 
     85 H85       -69.4996   31.2012  -71.0160 H         1 UNK         0.3453 
     86 H86       -72.7682   29.9085  -73.2794 H         1 UNK         0.2984 
     87 H87       -72.8644   30.3139  -76.1043 H         1 UNK         0.0554 
     88 H88       -70.7729   30.1319  -77.4758 H         1 UNK         0.0847 
     89 H89       -69.8782   30.9963  -76.2265 H         1 UNK         0.0847 
     90 H90       -71.1672   31.8017  -77.1078 H         1 UNK         0.0847 
     91 H91       -72.2677   28.3003  -75.3435 H         1 UNK         0.3141 
     92 H92       -69.3427   26.9276  -74.0347 H         1 UNK         0.0743 
     93 H93       -71.9936   27.0402  -72.5056 H         1 UNK         0.0784 
     94 H94       -70.6857   25.8893  -72.2596 H         1 UNK         0.0784 
     95 H95       -70.4452   27.5877  -71.8859 H         1 UNK         0.0784 
     96 H96       -70.3495   25.5363  -75.3750 H         1 UNK         0.3213 
     97 H97       -71.9846   24.9053  -77.0955 H         1 UNK         0.0855 
     98 H98       -71.2822   23.3940  -75.2206 H         1 UNK         0.0814 
     99 H99       -72.9153   23.3929  -74.5747 H         1 UNK         0.0814 
    100 H100      -72.5735   22.6350  -76.1274 H         1 UNK         0.0814 
    101 H101      -74.6259   25.4393  -76.0174 H         1 UNK         0.3105 
    102 H102      -76.1920   24.2572  -79.0173 H         1 UNK         0.0547 
    103 H103      -76.4491   22.3152  -77.5108 H         1 UNK         0.0837 
    104 H104      -76.7219   23.3747  -76.1368 H         1 UNK         0.0837 
    105 H105      -77.8820   23.3323  -77.4631 H         1 UNK         0.0837 
    106 H106      -77.0746   26.1648  -78.4824 H         1 UNK         0.3020 
    107 H107      -77.9928   27.8016  -75.4795 H         1 UNK         0.1245 
    108 H108      -76.8268   28.6543  -78.1889 H         1 UNK         0.0781 
    109 H109      -76.0691   28.9788  -76.6545 H         1 UNK         0.0781 
    110 H110      -77.8183   32.0798  -75.3476 H         1 UNK         0.0836 
    111 H111      -76.2618   31.4920  -75.8715 H         1 UNK         0.0836 
    112 H112      -79.2293   27.8390  -78.0179 H         1 UNK         0.3022 
    113 H113      -81.6548   26.9887  -77.8406 H         1 UNK         0.0747 
    114 H114      -80.0423   26.4687  -79.6677 H         1 UNK         0.0793 
    115 H115      -79.9505   24.7877  -79.1566 H         1 UNK         0.0793 
    116 H116      -81.4449   25.4315  -79.8324 H         1 UNK         0.0793 
    117 H117      -81.5339   24.0469  -77.3629 H         1 UNK         0.3047 
    118 H118      -84.0386   24.1399  -74.8653 H         1 UNK         0.0822 
    119 H119      -84.6158   22.0904  -76.1435 H         1 UNK         0.0807 
    120 H120      -83.6412   22.6349  -77.5068 H         1 UNK         0.0807 
    121 H121      -85.0679   23.5379  -77.0291 H         1 UNK         0.0807 
    122 H122      -82.2602   23.1464  -74.0318 H         1 UNK         0.2946 
    123 H123      -80.7305   21.2677  -73.8892 H         1 UNK         0.1144 
    124 H124      -78.4676   20.5392  -74.6182 H         1 UNK         0.0793 
    125 H125      -78.6325   21.4592  -76.1121 H         1 UNK         0.0793 
    126 H126      -79.6880   20.0928  -75.7996 H         1 UNK         0.0793 
    127 H127      -78.6306   23.2731  -74.3976 H         1 UNK         0.2896 
@<TRIPOS>BOND
     1    1    2 1    
     2    1   67 1    
     3    1   68 1    
     4    1   69 1    
     5    2    3 2    
     6    2    4 am   BACKBONE|DICT|INTERRES
     7    4    5 1    
     8    4   70 1    
     9    5    6 1    
    10    5   65 1    
    11    5   71 1    
    12    6    7 1    
    13    6   72 1    
    14    6   73 1    
    15    7    8 1    
    16    8    9 1    
    17    8   74 1    
    18    8   75 1    
    19    9   10 ar   
    20    9   14 ar   
    21   10   11 ar   
    22   10   76 1    
    23   11   12 ar   
    24   11   48 1    
    25   12   13 ar   
    26   12   77 1    
    27   13   14 ar   
    28   13   15 1    
    29   14   78 1    
    30   15   16 1    
    31   15   79 1    
    32   15   80 1    
    33   16   17 1    
    34   17   18 1    
    35   17   81 1    
    36   17   82 1    
    37   18   19 1    
    38   18   22 1    
    39   18   83 1    
    40   19   20 am   BACKBONE|DICT|INTERRES
    41   19   21 2    
    42   20   84 1    
    43   20   85 1    
    44   22   23 am   BACKBONE|DICT|INTERRES
    45   22   86 1    
    46   23   24 2    
    47   23   25 1    
    48   25   26 1    
    49   25   27 1    
    50   25   87 1    
    51   26   88 1    
    52   26   89 1    
    53   26   90 1    
    54   27   28 am   BACKBONE|DICT|INTERRES
    55   27   91 1    
    56   28   29 2    
    57   28   30 1    
    58   30   31 1    
    59   30   32 1    
    60   30   92 1    
    61   31   93 1    
    62   31   94 1    
    63   31   95 1    
    64   32   33 am   BACKBONE|DICT|INTERRES
    65   32   96 1    
    66   33   34 2    
    67   33   35 1    
    68   35   36 1    
    69   35   37 1    
    70   35   97 1    
    71   36   98 1    
    72   36   99 1    
    73   36  100 1    
    74   37   38 am   BACKBONE|DICT|INTERRES
    75   37  101 1    
    76   38   39 2    
    77   38   40 1    
    78   40   41 1    
    79   40   42 1    
    80   40  102 1    
    81   41  103 1    
    82   41  104 1    
    83   41  105 1    
    84   42   43 am   BACKBONE|DICT|INTERRES
    85   42  106 1    
    86   43   44 2    
    87   43   45 1    
    88   45   46 1    
    89   45   49 1    
    90   45  107 1    
    91   46   47 1    
    92   46  108 1    
    93   46  109 1    
    94   47   48 1    
    95   48  110 1    
    96   48  111 1    
    97   49   50 am   BACKBONE|DICT|INTERRES
    98   49  112 1    
    99   50   51 2    
   100   50   52 1    
   101   52   53 1    
   102   52   54 1    
   103   52  113 1    
   104   53  114 1    
   105   53  115 1    
   106   53  116 1    
   107   54   55 am   BACKBONE|DICT|INTERRES
   108   54  117 1    
   109   55   56 2    
   110   55   57 1    
   111   57   58 1    
   112   57   59 1    
   113   57  118 1    
   114   58  119 1    
   115   58  120 1    
   116   58  121 1    
   117   59   60 am   BACKBONE|DICT|INTERRES
   118   59  122 1    
   119   60   61 2    
   120   60   62 1    
   121   62   63 1    
   122   62   64 1    
   123   62  123 1    
   124   63  124 1    
   125   63  125 1    
   126   63  126 1    
   127   64   65 am   BACKBONE|DICT|INTERRES
   128   64  127 1    
   129   65   66 2    
@<TRIPOS>SUBSTRUCTURE
     1 UNK         1 GROUP             0       ****    0 ROOT    
