@<TRIPOS>MOLECULE
3R135
127   129    1
SMALL
USER_CHARGES


@<TRIPOS>ATOM
      1 CA        -80.1439   24.3161  -68.3601 C.3       0 UNK        -0.1998 
      2 C         -80.9883   24.7316  -69.5553 C.2       0 UNK         0.4909 
      3 O         -82.1971   24.4967  -69.5636 O.2       0 UNK        -0.5240 
      4 N         -80.3609   25.3484  -70.5649 N.am      1 UNK        -0.4739 
      5 CA        -81.0035   25.7868  -71.8113 C.3       1 UNK         0.0864 
      6 C6        -80.1829   26.8869  -72.5349 C.3       11 UNK        -0.0881 
      7 S7        -78.4231   26.4593  -72.8024 S.3       11 UNK        -0.2682 
      8 C8        -77.5987   27.6209  -71.6561 C.3       11 UNK         0.0289 
      9 C9        -77.4429   29.0620  -72.1516 C.ar      11 UNK        -0.0687 
     10 C10       -78.0756   29.5523  -73.3031 C.ar      11 UNK        -0.0823 
     11 C11       -77.8811   30.8728  -73.7266 C.ar      11 UNK        -0.0830 
     12 C12       -77.0643   31.7167  -72.9696 C.ar      11 UNK        -0.1021 
     13 C13       -76.4391   31.2516  -71.8105 C.ar      11 UNK        -0.0753 
     14 C14       -76.6322   29.9269  -71.4099 C.ar      11 UNK        -0.0933 
     15 C15       -75.5570   32.1806  -70.9889 C.3       11 UNK         0.0166 
     16 S16       -73.7928   31.7592  -71.1417 S.3       11 UNK        -0.2615 
     17 C17       -73.4686   32.1030  -72.9087 C.3       11 UNK        -0.0865 
     18 CA        -73.5295   30.8319  -73.8081 C.3       10 UNK         0.0862 
     19 C         -73.3146   31.1532  -75.3188 C.2       10 UNK         0.5551 
     20 N         -72.7462   30.2518  -76.1100 N.am      10 UNK        -0.7319 
     21 O         -73.6900   32.2243  -75.7891 O.2       10 UNK        -0.5018 
     22 N         -72.7127   29.7203  -73.2929 N.am      10 UNK        -0.4509 
     23 C         -71.3788   29.6959  -73.1611 C.2       10 UNK         0.4899 
     24 O         -70.6383   30.6333  -73.4603 O.2       10 UNK        -0.4839 
     25 CA        -70.7539   28.4061  -72.5878 C.3       9 UNK         0.0222 
     26 CB        -70.2926   28.6371  -71.1390 C.3       9 UNK        -0.1966 
     27 N         -71.6454   27.2395  -72.6251 N.am      9 UNK        -0.4218 
     28 C         -72.0783   26.6458  -73.7455 C.2       9 UNK         0.5020 
     29 O         -71.7089   26.9821  -74.8739 O.2       9 UNK        -0.5274 
     30 CA        -73.1099   25.5189  -73.5626 C.3       8 UNK         0.0270 
     31 CB        -74.3315   25.9959  -72.7527 C.3       8 UNK        -0.1976 
     32 N         -73.5823   25.0867  -74.8729 N.am      8 UNK        -0.4313 
     33 C         -73.4043   23.8804  -75.4239 C.2       8 UNK         0.5041 
     34 O         -72.8715   22.9335  -74.8425 O.2       8 UNK        -0.5577 
     35 CA        -73.9046   23.6847  -76.8693 C.3       7 UNK         0.0284 
     36 CB        -75.1616   22.7981  -76.8896 C.3       7 UNK        -0.1958 
     37 N         -74.1893   24.9565  -77.5440 N.am      7 UNK        -0.4454 
     38 C         -73.2403   25.7696  -78.0356 C.2       7 UNK         0.5089 
     39 O         -72.0510   25.4564  -78.0974 O.2       7 UNK        -0.5125 
     40 CA        -73.6614   27.1658  -78.5395 C.3       6 UNK         0.0408 
     41 CB        -73.5910   27.2244  -80.0742 C.3       6 UNK        -0.1791 
     42 N         -74.9931   27.6028  -78.1126 N.am      6 UNK        -0.4762 
     43 C         -75.3835   27.8393  -76.8507 C.2       6 UNK         0.5007 
     44 O         -74.6477   27.7252  -75.8719 O.2       6 UNK        -0.5032 
     45 CA        -76.8705   28.1987  -76.6486 C.3       5 UNK         0.0783 
     46 C46       -77.0585   29.7353  -76.7017 C.3       11 UNK        -0.0857 
     47 S47       -78.7784   30.2259  -76.3361 S.3       11 UNK        -0.2512 
     48 C48       -78.5607   31.4279  -74.9782 C.3       11 UNK         0.0225 
     49 N         -77.7639   27.5057  -77.5934 N.am      5 UNK        -0.4615 
     50 C         -77.8318   26.1802  -77.7722 C.2       4 UNK         0.5053 
     51 O         -77.1003   25.3749  -77.1950 O.2       4 UNK        -0.5105 
     52 CA        -78.8183   25.6787  -78.8367 C.3       4 UNK         0.0263 
     53 CB        -78.1573   25.7058  -80.2251 C.3       4 UNK        -0.1981 
     54 N         -79.2349   24.3087  -78.5371 N.am      4 UNK        -0.4224 
     55 C         -80.1736   23.9834  -77.6400 C.2       3 UNK         0.4895 
     56 O         -80.9014   24.8133  -77.0896 O.2       3 UNK        -0.5091 
     57 CA        -80.3634   22.4814  -77.3309 C.3       3 UNK         0.0250 
     58 CB        -79.1382   21.6047  -77.6859 C.3       3 UNK        -0.1996 
     59 N         -80.7841   22.2536  -75.9411 N.am      3 UNK        -0.4254 
     60 C         -80.0986   22.5699  -74.8320 C.2       2 UNK         0.5004 
     61 O         -78.9504   23.0192  -74.8238 O.2       2 UNK        -0.5226 
     62 CA        -80.8087   22.3130  -73.4927 C.3       2 UNK         0.0269 
     63 CB        -80.2259   21.0739  -72.7925 C.3       2 UNK        -0.1926 
     64 N         -80.6710   23.4734  -72.6127 N.am      2 UNK        -0.4687 
     65 C         -81.3543   24.6180  -72.7591 C.2       1 UNK         0.5165 
     66 O         -82.2497   24.7698  -73.5920 O.2       1 UNK        -0.5079 
     67 H67       -79.0975   24.5951  -68.4829 H         1 UNK         0.0900 
     68 H68       -80.1933   23.2362  -68.2233 H         1 UNK         0.0900 
     69 H69       -80.5170   24.7921  -67.4538 H         1 UNK         0.0900 
     70 H70       -79.3648   25.5094  -70.5161 H         1 UNK         0.2959 
     71 H71       -81.9620   26.2357  -71.5395 H         1 UNK         0.1079 
     72 H72       -80.6293   27.1295  -73.5017 H         1 UNK         0.0837 
     73 H73       -80.2416   27.8108  -71.9573 H         1 UNK         0.0837 
     74 H74       -78.1341   27.6280  -70.7056 H         1 UNK         0.0685 
     75 H75       -76.6077   27.2207  -71.4407 H         1 UNK         0.0685 
     76 H76       -78.7219   28.9113  -73.8826 H         1 UNK         0.1434 
     77 H77       -76.9157   32.7416  -73.2817 H         1 UNK         0.1329 
     78 H78       -76.1408   29.5679  -70.5157 H         1 UNK         0.1335 
     79 H79       -75.7068   33.2220  -71.2785 H         1 UNK         0.0680 
     80 H80       -75.8451   32.1121  -69.9389 H         1 UNK         0.0680 
     81 H81       -72.4860   32.5710  -72.9868 H         1 UNK         0.1032 
     82 H82       -74.1803   32.8530  -73.2579 H         1 UNK         0.1032 
     83 H83       -74.5523   30.4581  -73.7659 H         1 UNK         0.0461 
     84 H84       -72.4928   29.3452  -75.7436 H         1 UNK         0.3453 
     85 H85       -72.6113   30.4630  -77.0850 H         1 UNK         0.3453 
     86 H86       -73.2274   28.8926  -73.0356 H         1 UNK         0.2984 
     87 H87       -69.8748   28.1750  -73.1932 H         1 UNK         0.0554 
     88 H88       -69.7800   27.7623  -70.7384 H         1 UNK         0.0847 
     89 H89       -71.1310   28.8698  -70.4807 H         1 UNK         0.0847 
     90 H90       -69.5939   29.4730  -71.0806 H         1 UNK         0.0847 
     91 H91       -71.9800   26.8995  -71.7347 H         1 UNK         0.3141 
     92 H92       -72.6237   24.6966  -73.0341 H         1 UNK         0.0743 
     93 H93       -74.7936   26.8769  -73.2014 H         1 UNK         0.0784 
     94 H94       -75.0948   25.2189  -72.6987 H         1 UNK         0.0784 
     95 H95       -74.0646   26.2482  -71.7263 H         1 UNK         0.0784 
     96 H96       -73.9489   25.8365  -75.4515 H         1 UNK         0.3213 
     97 H97       -73.1181   23.1662  -77.4220 H         1 UNK         0.0855 
     98 H98       -75.9582   23.2104  -76.2687 H         1 UNK         0.0814 
     99 H99       -74.9393   21.8018  -76.5054 H         1 UNK         0.0814 
    100 H100      -75.5510   22.6773  -77.9005 H         1 UNK         0.0814 
    101 H101      -75.1559   25.2711  -77.5189 H         1 UNK         0.3105 
    102 H102      -72.9394   27.8791  -78.1368 H         1 UNK         0.0547 
    103 H103      -72.5993   26.9432  -80.4314 H         1 UNK         0.0837 
    104 H104      -74.3078   26.5451  -80.5372 H         1 UNK         0.0837 
    105 H105      -73.7908   28.2301  -80.4443 H         1 UNK         0.0837 
    106 H106      -75.6851   27.7042  -78.8408 H         1 UNK         0.3020 
    107 H107      -77.1362   27.8517  -75.6471 H         1 UNK         0.1245 
    108 H108      -76.7965   30.1232  -77.6879 H         1 UNK         0.0781 
    109 H109      -76.3844   30.2265  -75.9969 H         1 UNK         0.0781 
    110 H110      -79.5414   31.8126  -74.6957 H         1 UNK         0.0836 
    111 H111      -77.9979   32.2780  -75.3675 H         1 UNK         0.0836 
    112 H112      -78.3978   28.1009  -78.1074 H         1 UNK         0.3022 
    113 H113      -79.6950   26.3301  -78.8482 H         1 UNK         0.0747 
    114 H114      -78.8389   25.3441  -80.9953 H         1 UNK         0.0793 
    115 H115      -77.8680   26.7202  -80.5029 H         1 UNK         0.0793 
    116 H116      -77.2574   25.0897  -80.2577 H         1 UNK         0.0793 
    117 H117      -78.6542   23.5719  -78.9090 H         1 UNK         0.3047 
    118 H118      -81.1955   22.1512  -77.9546 H         1 UNK         0.0822 
    119 H119      -79.2969   20.5687  -77.3862 H         1 UNK         0.0807 
    120 H120      -78.2297   21.9542  -77.1929 H         1 UNK         0.0807 
    121 H121      -78.9511   21.5946  -78.7602 H         1 UNK         0.0807 
    122 H122      -81.7285   21.9105  -75.8328 H         1 UNK         0.2946 
    123 H123      -81.8722   22.1387  -73.6743 H         1 UNK         0.1144 
    124 H124      -80.7381   20.8715  -71.8514 H         1 UNK         0.0793 
    125 H125      -79.1628   21.1936  -72.5782 H         1 UNK         0.0793 
    126 H126      -80.3342   20.1866  -73.4178 H         1 UNK         0.0793 
    127 H127      -79.9256   23.4477  -71.9328 H         1 UNK         0.2896 
@<TRIPOS>BOND
     1    1    2 1    
     2    1   67 1    
     3    1   68 1    
     4    1   69 1    
     5    2    3 2    
     6    2    4 am   BACKBONE|DICT|INTERRES
     7    4    5 1    
     8    4   70 1    
     9    5    6 1    
    10    5   65 1    
    11    5   71 1    
    12    6    7 1    
    13    6   72 1    
    14    6   73 1    
    15    7    8 1    
    16    8    9 1    
    17    8   74 1    
    18    8   75 1    
    19    9   10 ar   
    20    9   14 ar   
    21   10   11 ar   
    22   10   76 1    
    23   11   12 ar   
    24   11   48 1    
    25   12   13 ar   
    26   12   77 1    
    27   13   14 ar   
    28   13   15 1    
    29   14   78 1    
    30   15   16 1    
    31   15   79 1    
    32   15   80 1    
    33   16   17 1    
    34   17   18 1    
    35   17   81 1    
    36   17   82 1    
    37   18   19 1    
    38   18   22 1    
    39   18   83 1    
    40   19   20 am   BACKBONE|DICT|INTERRES
    41   19   21 2    
    42   20   84 1    
    43   20   85 1    
    44   22   23 am   BACKBONE|DICT|INTERRES
    45   22   86 1    
    46   23   24 2    
    47   23   25 1    
    48   25   26 1    
    49   25   27 1    
    50   25   87 1    
    51   26   88 1    
    52   26   89 1    
    53   26   90 1    
    54   27   28 am   BACKBONE|DICT|INTERRES
    55   27   91 1    
    56   28   29 2    
    57   28   30 1    
    58   30   31 1    
    59   30   32 1    
    60   30   92 1    
    61   31   93 1    
    62   31   94 1    
    63   31   95 1    
    64   32   33 am   BACKBONE|DICT|INTERRES
    65   32   96 1    
    66   33   34 2    
    67   33   35 1    
    68   35   36 1    
    69   35   37 1    
    70   35   97 1    
    71   36   98 1    
    72   36   99 1    
    73   36  100 1    
    74   37   38 am   BACKBONE|DICT|INTERRES
    75   37  101 1    
    76   38   39 2    
    77   38   40 1    
    78   40   41 1    
    79   40   42 1    
    80   40  102 1    
    81   41  103 1    
    82   41  104 1    
    83   41  105 1    
    84   42   43 am   BACKBONE|DICT|INTERRES
    85   42  106 1    
    86   43   44 2    
    87   43   45 1    
    88   45   46 1    
    89   45   49 1    
    90   45  107 1    
    91   46   47 1    
    92   46  108 1    
    93   46  109 1    
    94   47   48 1    
    95   48  110 1    
    96   48  111 1    
    97   49   50 am   BACKBONE|DICT|INTERRES
    98   49  112 1    
    99   50   51 2    
   100   50   52 1    
   101   52   53 1    
   102   52   54 1    
   103   52  113 1    
   104   53  114 1    
   105   53  115 1    
   106   53  116 1    
   107   54   55 am   BACKBONE|DICT|INTERRES
   108   54  117 1    
   109   55   56 2    
   110   55   57 1    
   111   57   58 1    
   112   57   59 1    
   113   57  118 1    
   114   58  119 1    
   115   58  120 1    
   116   58  121 1    
   117   59   60 am   BACKBONE|DICT|INTERRES
   118   59  122 1    
   119   60   61 2    
   120   60   62 1    
   121   62   63 1    
   122   62   64 1    
   123   62  123 1    
   124   63  124 1    
   125   63  125 1    
   126   63  126 1    
   127   64   65 am   BACKBONE|DICT|INTERRES
   128   64  127 1    
   129   65   66 2    
@<TRIPOS>SUBSTRUCTURE
     1 UNK         1 GROUP             0       ****    0 ROOT    
