@<TRIPOS>MOLECULE
3R135
127   129    1
SMALL
USER_CHARGES


@<TRIPOS>ATOM
      1 CA        -80.8888   22.4167  -71.1470 C.3       0 UNK        -0.1998 
      2 C         -80.6100   23.7564  -71.8113 C.2       0 UNK         0.4909 
      3 O         -79.5189   23.9431  -72.3468 O.2       0 UNK        -0.5240 
      4 N         -81.5990   24.6634  -71.7844 N.am      1 UNK        -0.4739 
      5 CA        -81.6075   26.0322  -72.3227 C.3       1 UNK         0.0864 
      6 C6        -80.9622   27.0703  -71.3674 C.3       11 UNK        -0.0881 
      7 S7        -81.6692   28.7303  -71.6649 S.3       11 UNK        -0.2682 
      8 C8        -80.4879   29.8259  -70.8228 C.3       11 UNK         0.0289 
      9 C9        -79.1262   29.8467  -71.5015 C.ar      11 UNK        -0.0687 
     10 C10       -78.9568   30.4783  -72.7406 C.ar      11 UNK        -0.0823 
     11 C11       -77.6981   30.5141  -73.3521 C.ar      11 UNK        -0.0830 
     12 C12       -76.6086   29.9338  -72.6978 C.ar      11 UNK        -0.1021 
     13 C13       -76.7639   29.3027  -71.4621 C.ar      11 UNK        -0.0753 
     14 C14       -78.0271   29.2565  -70.8700 C.ar      11 UNK        -0.0933 
     15 C15       -75.5587   28.6879  -70.7700 C.3       11 UNK         0.0166 
     16 S16       -74.5378   29.9766  -69.9868 S.3       11 UNK        -0.2615 
     17 C17       -72.8909   29.1859  -69.9628 C.3       11 UNK        -0.0865 
     18 CA        -71.9083   29.8133  -70.9987 C.3       10 UNK         0.0862 
     19 C         -70.4483   29.2878  -70.8318 C.2       10 UNK         0.5551 
     20 N         -69.6847   29.0970  -71.9011 N.am      10 UNK        -0.7319 
     21 O         -69.9855   29.0833  -69.7120 O.2       10 UNK        -0.5018 
     22 N         -72.4270   29.7867  -72.3807 N.am      10 UNK        -0.4509 
     23 C         -72.6930   28.6888  -73.0992 C.2       10 UNK         0.4899 
     24 O         -72.5133   27.5413  -72.6867 O.2       10 UNK        -0.4839 
     25 CA        -73.3155   28.8932  -74.4943 C.3       9 UNK         0.0222 
     26 CB        -73.1562   30.3129  -75.0848 C.3       9 UNK        -0.1966 
     27 N         -72.8774   27.8608  -75.4318 N.am      9 UNK        -0.4218 
     28 C         -71.6274   27.6460  -75.8624 C.2       9 UNK         0.5020 
     29 O         -70.6865   28.4080  -75.6302 O.2       9 UNK        -0.5274 
     30 CA        -71.3487   26.3633  -76.6605 C.3       8 UNK         0.0270 
     31 CB        -70.4729   25.4007  -75.8321 C.3       8 UNK        -0.1976 
     32 N         -72.5515   25.6578  -77.1262 N.am      8 UNK        -0.4313 
     33 C         -72.5532   24.8358  -78.1833 C.2       8 UNK         0.5041 
     34 O         -71.5834   24.6676  -78.9255 O.2       8 UNK        -0.5577 
     35 CA        -73.8336   24.0292  -78.4419 C.3       7 UNK         0.0284 
     36 CB        -73.9654   22.8927  -77.4145 C.3       7 UNK        -0.1958 
     37 N         -75.0561   24.8372  -78.4664 N.am      7 UNK        -0.4454 
     38 C         -75.3485   25.7248  -79.4294 C.2       7 UNK         0.5089 
     39 O         -74.5836   26.0136  -80.3504 O.2       7 UNK        -0.5125 
     40 CA        -76.7422   26.3743  -79.3942 C.3       6 UNK         0.0408 
     41 CB        -77.7830   25.4300  -80.0156 C.3       6 UNK        -0.1791 
     42 N         -77.1625   26.7586  -78.0461 N.am      6 UNK        -0.4762 
     43 C         -76.6822   27.8258  -77.3892 C.2       6 UNK         0.5007 
     44 O         -75.8715   28.6162  -77.8739 O.2       6 UNK        -0.5032 
     45 CA        -77.1406   28.0203  -75.9289 C.3       5 UNK         0.0783 
     46 C46       -78.5064   28.7421  -75.8207 C.3       11 UNK        -0.0857 
     47 S47       -78.4696   30.5462  -76.0858 S.3       11 UNK        -0.2512 
     48 C48       -77.4828   31.2104  -74.6944 C.3       11 UNK         0.0225 
     49 N         -77.1592   26.7682  -75.1686 N.am      5 UNK        -0.4615 
     50 C         -76.1199   25.9431  -74.9801 C.2       4 UNK         0.5053 
     51 O         -74.9969   26.1067  -75.4619 O.2       4 UNK        -0.5105 
     52 CA        -76.3991   24.6940  -74.1358 C.3       4 UNK         0.0263 
     53 CB        -76.4749   25.0622  -72.6451 C.3       4 UNK        -0.1981 
     54 N         -77.6255   24.0072  -74.5503 N.am      4 UNK        -0.4224 
     55 C         -77.8004   23.4524  -75.7602 C.2       3 UNK         0.4895 
     56 O         -76.9492   23.4603  -76.6489 O.2       3 UNK        -0.5091 
     57 CA        -79.1694   22.8215  -76.0524 C.3       3 UNK         0.0250 
     58 CB        -79.4076   21.5703  -75.1905 C.3       3 UNK        -0.1996 
     59 N         -80.2666   23.7707  -75.8732 N.am      3 UNK        -0.4254 
     60 C         -80.4202   24.9082  -76.5674 C.2       2 UNK         0.5004 
     61 O         -79.6680   25.2782  -77.4669 O.2       2 UNK        -0.5226 
     62 CA        -81.5991   25.8083  -76.1668 C.3       2 UNK         0.0269 
     63 CB        -82.8524   25.4514  -76.9815 C.3       2 UNK        -0.1926 
     64 N         -81.9136   25.7607  -74.7356 N.am      2 UNK        -0.4687 
     65 C         -81.0631   26.1221  -73.7640 C.2       1 UNK         0.5165 
     66 O         -79.9003   26.4753  -73.9731 O.2       1 UNK        -0.5079 
     67 H67       -81.8757   22.3848  -70.6858 H         1 UNK         0.0900 
     68 H68       -80.1469   22.2230  -70.3729 H         1 UNK         0.0900 
     69 H69       -80.8311   21.6144  -71.8819 H         1 UNK         0.0900 
     70 H70       -82.4649   24.3941  -71.3378 H         1 UNK         0.2959 
     71 H71       -82.6690   26.2798  -72.3854 H         1 UNK         0.1079 
     72 H72       -81.1694   26.8084  -70.3289 H         1 UNK         0.0837 
     73 H73       -79.8750   27.0839  -71.4636 H         1 UNK         0.0837 
     74 H74       -80.8950   30.8379  -70.8124 H         1 UNK         0.0685 
     75 H75       -80.4013   29.5220  -69.7784 H         1 UNK         0.0685 
     76 H76       -79.8051   30.9361  -73.2310 H         1 UNK         0.1434 
     77 H77       -75.6255   29.9960  -73.1351 H         1 UNK         0.1329 
     78 H78       -78.1512   28.7741  -69.9102 H         1 UNK         0.1335 
     79 H79       -74.9777   28.1281  -71.5019 H         1 UNK         0.0680 
     80 H80       -75.8698   27.9668  -70.0126 H         1 UNK         0.0680 
     81 H81       -72.9850   28.1098  -70.1166 H         1 UNK         0.1032 
     82 H82       -72.4979   29.3039  -68.9514 H         1 UNK         0.1032 
     83 H83       -71.8331   30.8736  -70.7546 H         1 UNK         0.0461 
     84 H84       -68.7392   28.7696  -71.7817 H         1 UNK         0.3453 
     85 H85       -70.0550   29.2485  -72.8265 H         1 UNK         0.3453 
     86 H86       -72.5899   30.6906  -72.7994 H         1 UNK         0.2984 
     87 H87       -74.3786   28.7053  -74.3665 H         1 UNK         0.0554 
     88 H88       -73.6687   31.0596  -74.4777 H         1 UNK         0.0847 
     89 H89       -73.5899   30.3693  -76.0836 H         1 UNK         0.0847 
     90 H90       -72.1098   30.6101  -75.1630 H         1 UNK         0.0847 
     91 H91       -73.5877   27.1533  -75.6033 H         1 UNK         0.3141 
     92 H92       -70.7756   26.6837  -77.5335 H         1 UNK         0.0743 
     93 H93       -71.0090   25.0257  -74.9593 H         1 UNK         0.0784 
     94 H94       -70.1500   24.5429  -76.4222 H         1 UNK         0.0784 
     95 H95       -69.5710   25.8979  -75.4723 H         1 UNK         0.0784 
     96 H96       -73.4004   25.7340  -76.5739 H         1 UNK         0.3213 
     97 H97       -73.7292   23.5680  -79.4267 H         1 UNK         0.0855 
     98 H98       -74.1576   23.2739  -76.4109 H         1 UNK         0.0814 
     99 H99       -73.0530   22.2965  -77.3689 H         1 UNK         0.0814 
    100 H100      -74.7781   22.2154  -77.6770 H         1 UNK         0.0814 
    101 H101      -75.7566   24.6228  -77.7618 H         1 UNK         0.3105 
    102 H102      -76.7052   27.2755  -80.0101 H         1 UNK         0.0547 
    103 H103      -77.5011   25.1507  -81.0316 H         1 UNK         0.0837 
    104 H104      -77.8865   24.5089  -79.4401 H         1 UNK         0.0837 
    105 H105      -78.7641   25.9018  -80.0695 H         1 UNK         0.0837 
    106 H106      -77.8567   26.1653  -77.5997 H         1 UNK         0.3020 
    107 H107      -76.3897   28.6479  -75.4507 H         1 UNK         0.1245 
    108 H108      -79.2326   28.3015  -76.5061 H         1 UNK         0.0781 
    109 H109      -78.9287   28.5961  -74.8281 H         1 UNK         0.0781 
    110 H110      -76.4309   31.1691  -74.9812 H         1 UNK         0.0836 
    111 H111      -77.7163   32.2697  -74.5799 H         1 UNK         0.0836 
    112 H112      -78.0466   26.5313  -74.7322 H         1 UNK         0.3022 
    113 H113      -75.5655   24.0029  -74.2755 H         1 UNK         0.0747 
    114 H114      -76.6001   24.1747  -72.0247 H         1 UNK         0.0793 
    115 H115      -75.5621   25.5627  -72.3185 H         1 UNK         0.0793 
    116 H116      -77.3098   25.7335  -72.4362 H         1 UNK         0.0793 
    117 H117      -78.3867   23.9897  -73.8731 H         1 UNK         0.3047 
    118 H118      -79.1711   22.5140  -77.1004 H         1 UNK         0.0822 
    119 H119      -80.3388   21.0731  -75.4625 H         1 UNK         0.0807 
    120 H120      -79.4527   21.8078  -74.1275 H         1 UNK         0.0807 
    121 H121      -78.6034   20.8460  -75.3275 H         1 UNK         0.0807 
    122 H122      -80.9225   23.5783  -75.1309 H         1 UNK         0.2946 
    123 H123      -81.3145   26.8349  -76.4077 H         1 UNK         0.1144 
    124 H124      -82.6471   25.4987  -78.0521 H         1 UNK         0.0793 
    125 H125      -83.6686   26.1455  -76.7799 H         1 UNK         0.0793 
    126 H126      -83.2050   24.4430  -76.7616 H         1 UNK         0.0793 
    127 H127      -82.8442   25.4583  -74.4845 H         1 UNK         0.2896 
@<TRIPOS>BOND
     1    1    2 1    
     2    1   67 1    
     3    1   68 1    
     4    1   69 1    
     5    2    3 2    
     6    2    4 am   BACKBONE|DICT|INTERRES
     7    4    5 1    
     8    4   70 1    
     9    5    6 1    
    10    5   65 1    
    11    5   71 1    
    12    6    7 1    
    13    6   72 1    
    14    6   73 1    
    15    7    8 1    
    16    8    9 1    
    17    8   74 1    
    18    8   75 1    
    19    9   10 ar   
    20    9   14 ar   
    21   10   11 ar   
    22   10   76 1    
    23   11   12 ar   
    24   11   48 1    
    25   12   13 ar   
    26   12   77 1    
    27   13   14 ar   
    28   13   15 1    
    29   14   78 1    
    30   15   16 1    
    31   15   79 1    
    32   15   80 1    
    33   16   17 1    
    34   17   18 1    
    35   17   81 1    
    36   17   82 1    
    37   18   19 1    
    38   18   22 1    
    39   18   83 1    
    40   19   20 am   BACKBONE|DICT|INTERRES
    41   19   21 2    
    42   20   84 1    
    43   20   85 1    
    44   22   23 am   BACKBONE|DICT|INTERRES
    45   22   86 1    
    46   23   24 2    
    47   23   25 1    
    48   25   26 1    
    49   25   27 1    
    50   25   87 1    
    51   26   88 1    
    52   26   89 1    
    53   26   90 1    
    54   27   28 am   BACKBONE|DICT|INTERRES
    55   27   91 1    
    56   28   29 2    
    57   28   30 1    
    58   30   31 1    
    59   30   32 1    
    60   30   92 1    
    61   31   93 1    
    62   31   94 1    
    63   31   95 1    
    64   32   33 am   BACKBONE|DICT|INTERRES
    65   32   96 1    
    66   33   34 2    
    67   33   35 1    
    68   35   36 1    
    69   35   37 1    
    70   35   97 1    
    71   36   98 1    
    72   36   99 1    
    73   36  100 1    
    74   37   38 am   BACKBONE|DICT|INTERRES
    75   37  101 1    
    76   38   39 2    
    77   38   40 1    
    78   40   41 1    
    79   40   42 1    
    80   40  102 1    
    81   41  103 1    
    82   41  104 1    
    83   41  105 1    
    84   42   43 am   BACKBONE|DICT|INTERRES
    85   42  106 1    
    86   43   44 2    
    87   43   45 1    
    88   45   46 1    
    89   45   49 1    
    90   45  107 1    
    91   46   47 1    
    92   46  108 1    
    93   46  109 1    
    94   47   48 1    
    95   48  110 1    
    96   48  111 1    
    97   49   50 am   BACKBONE|DICT|INTERRES
    98   49  112 1    
    99   50   51 2    
   100   50   52 1    
   101   52   53 1    
   102   52   54 1    
   103   52  113 1    
   104   53  114 1    
   105   53  115 1    
   106   53  116 1    
   107   54   55 am   BACKBONE|DICT|INTERRES
   108   54  117 1    
   109   55   56 2    
   110   55   57 1    
   111   57   58 1    
   112   57   59 1    
   113   57  118 1    
   114   58  119 1    
   115   58  120 1    
   116   58  121 1    
   117   59   60 am   BACKBONE|DICT|INTERRES
   118   59  122 1    
   119   60   61 2    
   120   60   62 1    
   121   62   63 1    
   122   62   64 1    
   123   62  123 1    
   124   63  124 1    
   125   63  125 1    
   126   63  126 1    
   127   64   65 am   BACKBONE|DICT|INTERRES
   128   64  127 1    
   129   65   66 2    
@<TRIPOS>SUBSTRUCTURE
     1 UNK         1 GROUP             0       ****    0 ROOT    
