@<TRIPOS>MOLECULE
3R135
127   129    1
SMALL
USER_CHARGES


@<TRIPOS>ATOM
      1 CA        -78.8962   31.2273  -74.0445 C.3       0 UNK        -0.1998 
      2 C         -80.1621   30.5741  -74.5841 C.2       0 UNK         0.4909 
      3 O         -81.0139   31.2698  -75.1333 O.2       0 UNK        -0.5240 
      4 N         -80.3337   29.2511  -74.4688 N.am      1 UNK        -0.4739 
      5 CA        -79.4224   28.2744  -73.8517 C.3       1 UNK         0.0864 
      6 C6        -80.0683   27.5838  -72.6222 C.3       11 UNK        -0.0881 
      7 S7        -80.3619   28.7742  -71.2694 S.3       11 UNK        -0.2682 
      8 C8        -79.6903   27.8984  -69.8198 C.3       11 UNK         0.0289 
      9 C9        -78.1879   27.6605  -69.9089 C.ar      11 UNK        -0.0687 
     10 C10       -77.6880   26.3562  -69.9809 C.ar      11 UNK        -0.0823 
     11 C11       -76.3098   26.1215  -70.0276 C.ar      11 UNK        -0.0830 
     12 C12       -75.4301   27.2073  -69.9980 C.ar      11 UNK        -0.1021 
     13 C13       -75.9157   28.5155  -69.9125 C.ar      11 UNK        -0.0753 
     14 C14       -77.2959   28.7373  -69.8730 C.ar      11 UNK        -0.0933 
     15 C15       -74.9395   29.6780  -69.8136 C.3       11 UNK         0.0166 
     16 S16       -74.1919   30.0768  -71.4207 S.3       11 UNK        -0.2615 
     17 C17       -75.5063   31.0922  -72.1795 C.3       11 UNK        -0.0865 
     18 CA        -75.2050   31.4818  -73.6497 C.3       10 UNK         0.0862 
     19 C         -74.0298   32.5000  -73.7643 C.2       10 UNK         0.5551 
     20 N         -72.9066   32.1626  -74.3882 N.am      10 UNK        -0.7319 
     21 O         -74.1504   33.6255  -73.2866 O.2       10 UNK        -0.5018 
     22 N         -75.0765   30.2863  -74.4939 N.am      10 UNK        -0.4509 
     23 C         -75.1826   30.2682  -75.8277 C.2       10 UNK         0.4899 
     24 O         -75.5650   31.2323  -76.4916 O.2       10 UNK        -0.4839 
     25 CA        -74.8078   28.9503  -76.5373 C.3       9 UNK         0.0222 
     26 CB        -74.2675   29.1812  -77.9631 C.3       9 UNK        -0.1966 
     27 N         -73.8943   28.0835  -75.7810 N.am      9 UNK        -0.4218 
     28 C         -72.6708   28.3833  -75.3150 C.2       9 UNK         0.5020 
     29 O         -72.1394   29.4887  -75.4272 O.2       9 UNK        -0.5274 
     30 CA        -71.9251   27.2575  -74.5863 C.3       8 UNK         0.0270 
     31 CB        -72.4975   27.0511  -73.1729 C.3       8 UNK        -0.1976 
     32 N         -72.0103   26.0054  -75.3397 N.am      8 UNK        -0.4313 
     33 C         -71.0908   25.5824  -76.2183 C.2       8 UNK         0.5041 
     34 O         -70.0388   26.1796  -76.4510 O.2       8 UNK        -0.5577 
     35 CA        -71.3764   24.2626  -76.9602 C.3       7 UNK         0.0284 
     36 CB        -70.7030   23.0851  -76.2364 C.3       7 UNK        -0.1958 
     37 N         -72.8054   23.9792  -77.1137 N.am      7 UNK        -0.4454 
     38 C         -73.6276   24.6421  -77.9387 C.2       7 UNK         0.5089 
     39 O         -73.2561   25.5222  -78.7145 O.2       7 UNK        -0.5125 
     40 CA        -75.1228   24.2767  -77.8743 C.3       6 UNK         0.0408 
     41 CB        -75.4585   23.2324  -78.9505 C.3       6 UNK        -0.1791 
     42 N         -75.5876   23.7898  -76.5668 N.am      6 UNK        -0.4762 
     43 C         -75.4885   24.4512  -75.4045 C.2       6 UNK         0.5007 
     44 O         -74.9466   25.5531  -75.2966 O.2       6 UNK        -0.5032 
     45 CA        -76.1035   23.7689  -74.1734 C.3       5 UNK         0.0783 
     46 C46       -75.8085   24.5457  -72.8638 C.3       11 UNK        -0.0857 
     47 S47       -76.4628   23.6861  -71.3965 S.3       11 UNK        -0.2512 
     48 C48       -75.7634   24.6981  -70.0540 C.3       11 UNK         0.0225 
     49 N         -77.5400   23.6335  -74.4014 N.am      5 UNK        -0.4615 
     50 C         -78.2124   22.4810  -74.4783 C.2       4 UNK         0.5053 
     51 O         -77.6758   21.3732  -74.4961 O.2       4 UNK        -0.5105 
     52 CA        -79.7422   22.5801  -74.5363 C.3       4 UNK         0.0263 
     53 CB        -80.3055   22.9303  -73.1478 C.3       4 UNK        -0.1981 
     54 N         -80.1731   23.5946  -75.4990 N.am      4 UNK        -0.4224 
     55 C         -80.8664   23.3459  -76.6193 C.2       3 UNK         0.4895 
     56 O         -81.2347   22.2223  -76.9645 O.2       3 UNK        -0.5091 
     57 CA        -81.2317   24.5499  -77.5103 C.3       3 UNK         0.0250 
     58 CB        -82.6810   24.9902  -77.2463 C.3       3 UNK        -0.1996 
     59 N         -80.3437   25.7011  -77.3332 N.am      3 UNK        -0.4254 
     60 C         -79.0579   25.7347  -77.7082 C.2       2 UNK         0.5004 
     61 O         -78.5085   24.8300  -78.3343 O.2       2 UNK        -0.5226 
     62 CA        -78.2358   26.9712  -77.3008 C.3       2 UNK         0.0269 
     63 CB        -78.0644   27.9141  -78.5032 C.3       2 UNK        -0.1926 
     64 N         -78.7710   27.7346  -76.1640 N.am      2 UNK        -0.4687 
     65 C         -78.9507   27.2657  -74.9186 C.2       1 UNK         0.5165 
     66 O         -78.7806   26.0837  -74.6185 O.2       1 UNK        -0.5079 
     67 H67       -78.9149   32.3034  -74.2154 H         1 UNK         0.0900 
     68 H68       -78.8019   31.0615  -72.9716 H         1 UNK         0.0900 
     69 H69       -78.0203   30.8251  -74.5504 H         1 UNK         0.0900 
     70 H70       -81.1876   28.8558  -74.8370 H         1 UNK         0.2959 
     71 H71       -78.5043   28.7495  -73.5046 H         1 UNK         0.1079 
     72 H72       -79.4318   26.7793  -72.2504 H         1 UNK         0.0837 
     73 H73       -81.0172   27.1170  -72.8923 H         1 UNK         0.0837 
     74 H74       -80.2283   26.9571  -69.6961 H         1 UNK         0.0685 
     75 H75       -79.9014   28.4884  -68.9269 H         1 UNK         0.0685 
     76 H76       -78.3707   25.5173  -69.9910 H         1 UNK         0.1434 
     77 H77       -74.3619   27.0384  -70.0206 H         1 UNK         0.1329 
     78 H78       -77.6794   29.7459  -69.7991 H         1 UNK         0.1335 
     79 H79       -74.1432   29.4174  -69.1148 H         1 UNK         0.0680 
     80 H80       -75.4251   30.5640  -69.4014 H         1 UNK         0.0680 
     81 H81       -75.6645   31.9844  -71.5705 H         1 UNK         0.1032 
     82 H82       -76.4417   30.5332  -72.1355 H         1 UNK         0.1032 
     83 H83       -76.0766   32.0297  -74.0102 H         1 UNK         0.0461 
     84 H84       -72.7786   31.2302  -74.7693 H         1 UNK         0.3453 
     85 H85       -72.1610   32.8361  -74.4566 H         1 UNK         0.3453 
     86 H86       -74.7327   29.4607  -74.0262 H         1 UNK         0.2984 
     87 H87       -75.7360   28.3882  -76.6207 H         1 UNK         0.0554 
     88 H88       -74.9923   29.7125  -78.5809 H         1 UNK         0.0847 
     89 H89       -74.0520   28.2363  -78.4620 H         1 UNK         0.0847 
     90 H90       -73.3512   29.7722  -77.9546 H         1 UNK         0.0847 
     91 H91       -74.2535   27.1468  -75.5958 H         1 UNK         0.3141 
     92 H92       -70.8796   27.5561  -74.4823 H         1 UNK         0.0743 
     93 H93       -71.9868   26.2407  -72.6527 H         1 UNK         0.0784 
     94 H94       -72.3686   27.9507  -72.5704 H         1 UNK         0.0784 
     95 H95       -73.5632   26.8201  -73.1877 H         1 UNK         0.0784 
     96 H96       -72.8770   25.4879  -75.2604 H         1 UNK         0.3213 
     97 H97       -70.9372   24.3463  -77.9569 H         1 UNK         0.0855 
     98 H98       -71.1074   22.9402  -75.2338 H         1 UNK         0.0814 
     99 H99       -69.6302   23.2544  -76.1327 H         1 UNK         0.0814 
    100 H100      -70.8292   22.1538  -76.7890 H         1 UNK         0.0814 
    101 H101      -73.1976   23.2529  -76.5325 H         1 UNK         0.3105 
    102 H102      -75.6816   25.1861  -78.1006 H         1 UNK         0.0547 
    103 H103      -74.9494   22.2852  -78.7688 H         1 UNK         0.0837 
    104 H104      -75.1574   23.5804  -79.9396 H         1 UNK         0.0837 
    105 H105      -76.5299   23.0359  -78.9936 H         1 UNK         0.0837 
    106 H106      -76.0730   22.9033  -76.5669 H         1 UNK         0.3020 
    107 H107      -75.6331   22.7863  -74.0912 H         1 UNK         0.1245 
    108 H108      -76.2411   25.5480  -72.9009 H         1 UNK         0.0781 
    109 H109      -74.7330   24.6733  -72.7290 H         1 UNK         0.0781 
    110 H110      -74.6758   24.6976  -70.1428 H         1 UNK         0.0836 
    111 H111      -75.9921   24.2198  -69.1008 H         1 UNK         0.0836 
    112 H112      -78.0510   24.5145  -74.4266 H         1 UNK         0.3022 
    113 H113      -80.1235   21.5958  -74.8163 H         1 UNK         0.0747 
    114 H114      -81.3956   22.9356  -73.1543 H         1 UNK         0.0793 
    115 H115      -79.9886   22.1999  -72.4020 H         1 UNK         0.0793 
    116 H116      -79.9686   23.9107  -72.8072 H         1 UNK         0.0793 
    117 H117      -79.8777   24.5464  -75.3123 H         1 UNK         0.3047 
    118 H118      -81.1565   24.2212  -78.5493 H         1 UNK         0.0822 
    119 H119      -82.9824   25.7917  -77.9211 H         1 UNK         0.0807 
    120 H120      -82.8172   25.3416  -76.2227 H         1 UNK         0.0807 
    121 H121      -83.3744   24.1621  -77.4009 H         1 UNK         0.0807 
    122 H122      -80.7190   26.4999  -76.8442 H         1 UNK         0.2946 
    123 H123      -77.2522   26.6022  -77.0046 H         1 UNK         0.1144 
    124 H124      -77.4394   28.7727  -78.2596 H         1 UNK         0.0793 
    125 H125      -79.0244   28.2916  -78.8574 H         1 UNK         0.0793 
    126 H126      -77.5894   27.3974  -79.3386 H         1 UNK         0.0793 
    127 H127      -78.9851   28.7065  -76.3370 H         1 UNK         0.2896 
@<TRIPOS>BOND
     1    1    2 1    
     2    1   67 1    
     3    1   68 1    
     4    1   69 1    
     5    2    3 2    
     6    2    4 am   BACKBONE|DICT|INTERRES
     7    4    5 1    
     8    4   70 1    
     9    5    6 1    
    10    5   65 1    
    11    5   71 1    
    12    6    7 1    
    13    6   72 1    
    14    6   73 1    
    15    7    8 1    
    16    8    9 1    
    17    8   74 1    
    18    8   75 1    
    19    9   10 ar   
    20    9   14 ar   
    21   10   11 ar   
    22   10   76 1    
    23   11   12 ar   
    24   11   48 1    
    25   12   13 ar   
    26   12   77 1    
    27   13   14 ar   
    28   13   15 1    
    29   14   78 1    
    30   15   16 1    
    31   15   79 1    
    32   15   80 1    
    33   16   17 1    
    34   17   18 1    
    35   17   81 1    
    36   17   82 1    
    37   18   19 1    
    38   18   22 1    
    39   18   83 1    
    40   19   20 am   BACKBONE|DICT|INTERRES
    41   19   21 2    
    42   20   84 1    
    43   20   85 1    
    44   22   23 am   BACKBONE|DICT|INTERRES
    45   22   86 1    
    46   23   24 2    
    47   23   25 1    
    48   25   26 1    
    49   25   27 1    
    50   25   87 1    
    51   26   88 1    
    52   26   89 1    
    53   26   90 1    
    54   27   28 am   BACKBONE|DICT|INTERRES
    55   27   91 1    
    56   28   29 2    
    57   28   30 1    
    58   30   31 1    
    59   30   32 1    
    60   30   92 1    
    61   31   93 1    
    62   31   94 1    
    63   31   95 1    
    64   32   33 am   BACKBONE|DICT|INTERRES
    65   32   96 1    
    66   33   34 2    
    67   33   35 1    
    68   35   36 1    
    69   35   37 1    
    70   35   97 1    
    71   36   98 1    
    72   36   99 1    
    73   36  100 1    
    74   37   38 am   BACKBONE|DICT|INTERRES
    75   37  101 1    
    76   38   39 2    
    77   38   40 1    
    78   40   41 1    
    79   40   42 1    
    80   40  102 1    
    81   41  103 1    
    82   41  104 1    
    83   41  105 1    
    84   42   43 am   BACKBONE|DICT|INTERRES
    85   42  106 1    
    86   43   44 2    
    87   43   45 1    
    88   45   46 1    
    89   45   49 1    
    90   45  107 1    
    91   46   47 1    
    92   46  108 1    
    93   46  109 1    
    94   47   48 1    
    95   48  110 1    
    96   48  111 1    
    97   49   50 am   BACKBONE|DICT|INTERRES
    98   49  112 1    
    99   50   51 2    
   100   50   52 1    
   101   52   53 1    
   102   52   54 1    
   103   52  113 1    
   104   53  114 1    
   105   53  115 1    
   106   53  116 1    
   107   54   55 am   BACKBONE|DICT|INTERRES
   108   54  117 1    
   109   55   56 2    
   110   55   57 1    
   111   57   58 1    
   112   57   59 1    
   113   57  118 1    
   114   58  119 1    
   115   58  120 1    
   116   58  121 1    
   117   59   60 am   BACKBONE|DICT|INTERRES
   118   59  122 1    
   119   60   61 2    
   120   60   62 1    
   121   62   63 1    
   122   62   64 1    
   123   62  123 1    
   124   63  124 1    
   125   63  125 1    
   126   63  126 1    
   127   64   65 am   BACKBONE|DICT|INTERRES
   128   64  127 1    
   129   65   66 2    
@<TRIPOS>SUBSTRUCTURE
     1 UNK         1 GROUP             0       ****    0 ROOT    
