@<TRIPOS>MOLECULE
3R135
127   129    1
SMALL
USER_CHARGES


@<TRIPOS>ATOM
      1 CA        -76.4562   24.8977  -70.8652 C.3       0 UNK        -0.1998 
      2 C         -77.9155   25.0927  -70.4818 C.2       0 UNK         0.4909 
      3 O         -78.4270   24.3731  -69.6240 O.2       0 UNK        -0.5240 
      4 N         -78.5948   26.0522  -71.1251 N.am      1 UNK        -0.4739 
      5 CA        -80.0253   26.3417  -70.9345 C.3       1 UNK         0.0864 
      6 C6        -80.3929   27.7604  -71.4355 C.3       11 UNK        -0.0881 
      7 S7        -79.5233   29.0789  -70.5219 S.3       11 UNK        -0.2682 
      8 C8        -79.9643   30.5495  -71.5045 C.3       11 UNK         0.0289 
      9 C9        -79.1433   30.6253  -72.7822 C.ar      11 UNK        -0.0687 
     10 C10       -79.6416   30.0959  -73.9748 C.ar      11 UNK        -0.0823 
     11 C11       -78.8475   30.0746  -75.1236 C.ar      11 UNK        -0.0830 
     12 C12       -77.5732   30.6481  -75.0892 C.ar      11 UNK        -0.1021 
     13 C13       -77.0712   31.2194  -73.9115 C.ar      11 UNK        -0.0753 
     14 C14       -77.8677   31.1967  -72.7622 C.ar      11 UNK        -0.0933 
     15 C15       -75.6694   31.8271  -73.8040 C.3       11 UNK         0.0166 
     16 S16       -74.6759   31.8160  -75.3381 S.3       11 UNK        -0.2615 
     17 C17       -72.9757   31.7159  -74.6796 C.3       11 UNK        -0.0865 
     18 CA        -72.3784   30.2863  -74.8286 C.3       10 UNK         0.0862 
     19 C         -70.8429   30.2194  -74.5698 C.2       10 UNK         0.5551 
     20 N         -70.2573   29.0316  -74.4786 N.am      10 UNK        -0.7319 
     21 O         -70.1692   31.2419  -74.4619 O.2       10 UNK        -0.5018 
     22 N         -73.1537   29.2692  -74.0980 N.am      10 UNK        -0.4509 
     23 C         -73.2094   29.1223  -72.7658 C.2       10 UNK         0.4899 
     24 O         -72.6155   29.8443  -71.9647 O.2       10 UNK        -0.4839 
     25 CA        -74.0793   27.9766  -72.2275 C.3       9 UNK         0.0222 
     26 CB        -75.5253   28.4547  -72.0063 C.3       9 UNK        -0.1966 
     27 N         -74.0603   26.8324  -73.1431 N.am      9 UNK        -0.4218 
     28 C         -73.3016   25.7418  -72.9728 C.2       9 UNK         0.5020 
     29 O         -72.6338   25.5209  -71.9615 O.2       9 UNK        -0.5274 
     30 CA        -73.2706   24.7136  -74.1177 C.3       8 UNK         0.0270 
     31 CB        -74.4236   23.7047  -73.9825 C.3       8 UNK        -0.1976 
     32 N         -73.2698   25.2872  -75.4683 N.am      8 UNK        -0.4313 
     33 C         -72.2850   26.0430  -75.9794 C.2       8 UNK         0.5041 
     34 O         -71.3380   26.4730  -75.3208 O.2       8 UNK        -0.5577 
     35 CA        -72.3639   26.3729  -77.4776 C.3       7 UNK         0.0284 
     36 CB        -72.1329   25.1146  -78.3323 C.3       7 UNK        -0.1958 
     37 N         -73.6653   26.9514  -77.7972 N.am      7 UNK        -0.4454 
     38 C         -73.8858   28.2479  -78.0523 C.2       7 UNK         0.5089 
     39 O         -72.9899   29.0725  -78.2318 O.2       7 UNK        -0.5125 
     40 CA        -75.3539   28.7213  -78.1023 C.3       6 UNK         0.0408 
     41 CB        -75.7969   28.9539  -79.5549 C.3       6 UNK        -0.1791 
     42 N         -76.3066   27.8145  -77.4522 N.am      6 UNK        -0.4762 
     43 C         -76.2847   27.4614  -76.1585 C.2       6 UNK         0.5007 
     44 O         -75.4597   27.8844  -75.3495 O.2       6 UNK        -0.5032 
     45 CA        -77.2734   26.3674  -75.7137 C.3       5 UNK         0.0783 
     46 C46       -78.5382   26.9495  -75.0419 C.3       11 UNK        -0.0857 
     47 S47       -79.7987   27.6383  -76.1784 S.3       11 UNK        -0.2512 
     48 C48       -79.3424   29.3989  -76.3964 C.3       11 UNK         0.0225 
     49 N         -77.5717   25.3827  -76.7596 N.am      5 UNK        -0.4615 
     50 C         -76.6652   24.6054  -77.3665 C.2       4 UNK         0.5053 
     51 O         -75.4549   24.6765  -77.1386 O.2       4 UNK        -0.5105 
     52 CA        -77.2032   23.5774  -78.3781 C.3       4 UNK         0.0263 
     53 CB        -76.0733   22.8459  -79.1268 C.3       4 UNK        -0.1981 
     54 N         -78.0514   22.5890  -77.7102 N.am      4 UNK        -0.4224 
     55 C         -79.3199   22.7902  -77.3298 C.2       3 UNK         0.4895 
     56 O         -79.9486   23.8192  -77.5889 O.2       3 UNK        -0.5091 
     57 CA        -80.0061   21.6790  -76.5092 C.3       3 UNK         0.0250 
     58 CB        -79.0746   20.5081  -76.1154 C.3       3 UNK        -0.1996 
     59 N         -80.6777   22.2201  -75.3202 N.am      3 UNK        -0.4254 
     60 C         -80.1124   22.9230  -74.3272 C.2       2 UNK         0.5004 
     61 O         -78.9108   23.2043  -74.2630 O.2       2 UNK        -0.5226 
     62 CA        -81.0497   23.3677  -73.1978 C.3       2 UNK         0.0269 
     63 CB        -81.3975   22.1848  -72.2726 C.3       2 UNK        -0.1926 
     64 N         -80.3775   24.4171  -72.4403 N.am      2 UNK        -0.4687 
     65 C         -80.9438   25.2874  -71.5970 C.2       1 UNK         0.5165 
     66 O         -82.1490   25.2921  -71.3412 O.2       1 UNK        -0.5079 
     67 H67       -76.2499   25.2826  -71.8629 H         1 UNK         0.0900 
     68 H68       -76.2018   23.8380  -70.8602 H         1 UNK         0.0900 
     69 H69       -75.8053   25.4080  -70.1556 H         1 UNK         0.0900 
     70 H70       -78.1190   26.6450  -71.7879 H         1 UNK         0.2959 
     71 H71       -80.2382   26.2986  -69.8637 H         1 UNK         0.1079 
     72 H72       -80.1705   27.8459  -72.4990 H         1 UNK         0.0837 
     73 H73       -81.4643   27.9436  -71.3298 H         1 UNK         0.0837 
     74 H74       -81.0321   30.5390  -71.7291 H         1 UNK         0.0685 
     75 H75       -79.7880   31.4418  -70.9019 H         1 UNK         0.0685 
     76 H76       -80.6270   29.6511  -73.9990 H         1 UNK         0.1434 
     77 H77       -76.9705   30.6213  -75.9843 H         1 UNK         0.1329 
     78 H78       -77.4831   31.6044  -71.8371 H         1 UNK         0.1335 
     79 H79       -75.1303   31.2876  -73.0262 H         1 UNK         0.0680 
     80 H80       -75.7531   32.8588  -73.4600 H         1 UNK         0.0680 
     81 H81       -72.9443   32.0468  -73.6404 H         1 UNK         0.1032 
     82 H82       -72.3770   32.4364  -75.2396 H         1 UNK         0.1032 
     83 H83       -72.4757   30.0200  -75.8794 H         1 UNK         0.0461 
     84 H84       -69.2653   28.9861  -74.3115 H         1 UNK         0.3453 
     85 H85       -70.7793   28.1726  -74.6326 H         1 UNK         0.3453 
     86 H86       -73.7459   28.6798  -74.6705 H         1 UNK         0.2984 
     87 H87       -73.6765   27.6897  -71.2540 H         1 UNK         0.0554 
     88 H88       -76.1229   27.6983  -71.5029 H         1 UNK         0.0847 
     89 H89       -76.0227   28.7092  -72.9417 H         1 UNK         0.0847 
     90 H90       -75.5494   29.3446  -71.3759 H         1 UNK         0.0847 
     91 H91       -74.5490   26.9637  -74.0243 H         1 UNK         0.3141 
     92 H92       -72.3363   24.1576  -74.0143 H         1 UNK         0.0743 
     93 H93       -74.4100   23.2265  -73.0021 H         1 UNK         0.0784 
     94 H94       -75.3982   24.1757  -74.0994 H         1 UNK         0.0784 
     95 H95       -74.3465   22.9129  -74.7280 H         1 UNK         0.0784 
     96 H96       -74.0201   24.9837  -76.0873 H         1 UNK         0.3213 
     97 H97       -71.5637   27.0817  -77.7022 H         1 UNK         0.0855 
     98 H98       -71.1736   24.6531  -78.0944 H         1 UNK         0.0814 
     99 H99       -72.1196   25.3591  -79.3945 H         1 UNK         0.0814 
    100 H100      -72.9060   24.3615  -78.1750 H         1 UNK         0.0814 
    101 H101      -74.4675   26.3445  -77.6691 H         1 UNK         0.3105 
    102 H102      -75.3978   29.6758  -77.5748 H         1 UNK         0.0547 
    103 H103      -75.1277   29.6523  -80.0596 H         1 UNK         0.0837 
    104 H104      -75.7950   28.0278  -80.1309 H         1 UNK         0.0837 
    105 H105      -76.7993   29.3796  -79.6021 H         1 UNK         0.0837 
    106 H106      -77.0083   27.3913  -78.0427 H         1 UNK         0.3020 
    107 H107      -76.7488   25.8131  -74.9347 H         1 UNK         0.1245 
    108 H108      -78.2666   27.6713  -74.2715 H         1 UNK         0.0781 
    109 H109      -79.0349   26.1447  -74.4985 H         1 UNK         0.0781 
    110 H110      -80.2128   29.9412  -76.7677 H         1 UNK         0.0836 
    111 H111      -78.5913   29.4662  -77.1843 H         1 UNK         0.0836 
    112 H112      -78.5518   25.2344  -76.9776 H         1 UNK         0.3022 
    113 H113      -77.7972   24.1207  -79.1162 H         1 UNK         0.0747 
    114 H114      -76.4719   22.1575  -79.8721 H         1 UNK         0.0793 
    115 H115      -75.4311   23.5541  -79.6524 H         1 UNK         0.0793 
    116 H116      -75.4392   22.2749  -78.4471 H         1 UNK         0.0793 
    117 H117      -77.6004   21.7328  -77.4221 H         1 UNK         0.3047 
    118 H118      -80.7912   21.2752  -77.1502 H         1 UNK         0.0822 
    119 H119      -79.6182   19.7536  -75.5467 H         1 UNK         0.0807 
    120 H120      -78.2358   20.8376  -75.5005 H         1 UNK         0.0807 
    121 H121      -78.6706   20.0058  -76.9954 H         1 UNK         0.0807 
    122 H122      -81.6763   22.0687  -75.2861 H         1 UNK         0.2946 
    123 H123      -81.9606   23.7772  -73.6406 H         1 UNK         0.1144 
    124 H124      -81.8832   21.3795  -72.8249 H         1 UNK         0.0793 
    125 H125      -82.0813   22.4848  -71.4785 H         1 UNK         0.0793 
    126 H126      -80.5049   21.7680  -71.8040 H         1 UNK         0.0793 
    127 H127      -79.3833   24.4763  -72.6234 H         1 UNK         0.2896 
@<TRIPOS>BOND
     1    1    2 1    
     2    1   67 1    
     3    1   68 1    
     4    1   69 1    
     5    2    3 2    
     6    2    4 am   BACKBONE|DICT|INTERRES
     7    4    5 1    
     8    4   70 1    
     9    5    6 1    
    10    5   65 1    
    11    5   71 1    
    12    6    7 1    
    13    6   72 1    
    14    6   73 1    
    15    7    8 1    
    16    8    9 1    
    17    8   74 1    
    18    8   75 1    
    19    9   10 ar   
    20    9   14 ar   
    21   10   11 ar   
    22   10   76 1    
    23   11   12 ar   
    24   11   48 1    
    25   12   13 ar   
    26   12   77 1    
    27   13   14 ar   
    28   13   15 1    
    29   14   78 1    
    30   15   16 1    
    31   15   79 1    
    32   15   80 1    
    33   16   17 1    
    34   17   18 1    
    35   17   81 1    
    36   17   82 1    
    37   18   19 1    
    38   18   22 1    
    39   18   83 1    
    40   19   20 am   BACKBONE|DICT|INTERRES
    41   19   21 2    
    42   20   84 1    
    43   20   85 1    
    44   22   23 am   BACKBONE|DICT|INTERRES
    45   22   86 1    
    46   23   24 2    
    47   23   25 1    
    48   25   26 1    
    49   25   27 1    
    50   25   87 1    
    51   26   88 1    
    52   26   89 1    
    53   26   90 1    
    54   27   28 am   BACKBONE|DICT|INTERRES
    55   27   91 1    
    56   28   29 2    
    57   28   30 1    
    58   30   31 1    
    59   30   32 1    
    60   30   92 1    
    61   31   93 1    
    62   31   94 1    
    63   31   95 1    
    64   32   33 am   BACKBONE|DICT|INTERRES
    65   32   96 1    
    66   33   34 2    
    67   33   35 1    
    68   35   36 1    
    69   35   37 1    
    70   35   97 1    
    71   36   98 1    
    72   36   99 1    
    73   36  100 1    
    74   37   38 am   BACKBONE|DICT|INTERRES
    75   37  101 1    
    76   38   39 2    
    77   38   40 1    
    78   40   41 1    
    79   40   42 1    
    80   40  102 1    
    81   41  103 1    
    82   41  104 1    
    83   41  105 1    
    84   42   43 am   BACKBONE|DICT|INTERRES
    85   42  106 1    
    86   43   44 2    
    87   43   45 1    
    88   45   46 1    
    89   45   49 1    
    90   45  107 1    
    91   46   47 1    
    92   46  108 1    
    93   46  109 1    
    94   47   48 1    
    95   48  110 1    
    96   48  111 1    
    97   49   50 am   BACKBONE|DICT|INTERRES
    98   49  112 1    
    99   50   51 2    
   100   50   52 1    
   101   52   53 1    
   102   52   54 1    
   103   52  113 1    
   104   53  114 1    
   105   53  115 1    
   106   53  116 1    
   107   54   55 am   BACKBONE|DICT|INTERRES
   108   54  117 1    
   109   55   56 2    
   110   55   57 1    
   111   57   58 1    
   112   57   59 1    
   113   57  118 1    
   114   58  119 1    
   115   58  120 1    
   116   58  121 1    
   117   59   60 am   BACKBONE|DICT|INTERRES
   118   59  122 1    
   119   60   61 2    
   120   60   62 1    
   121   62   63 1    
   122   62   64 1    
   123   62  123 1    
   124   63  124 1    
   125   63  125 1    
   126   63  126 1    
   127   64   65 am   BACKBONE|DICT|INTERRES
   128   64  127 1    
   129   65   66 2    
@<TRIPOS>SUBSTRUCTURE
     1 UNK         1 GROUP             0       ****    0 ROOT    
