@<TRIPOS>MOLECULE
3R135
127   129    1
SMALL
USER_CHARGES


@<TRIPOS>ATOM
      1 CA        -83.9679   23.6270  -73.4912 C.3       0 UNK        -0.1998 
      2 C         -83.1482   24.8822  -73.7452 C.2       0 UNK         0.4909 
      3 O         -83.0678   25.3442  -74.8841 O.2       0 UNK        -0.5240 
      4 N         -82.5436   25.4428  -72.6893 N.am      1 UNK        -0.4739 
      5 CA        -81.7557   26.6786  -72.7436 C.3       1 UNK         0.0864 
      6 C6        -81.4521   27.2276  -71.3275 C.3       11 UNK        -0.0881 
      7 S7        -81.2561   29.0437  -71.3315 S.3       11 UNK        -0.2682 
      8 C8        -79.7601   29.2828  -70.3217 C.3       11 UNK         0.0289 
      9 C9        -78.4949   28.8454  -71.0454 C.ar      11 UNK        -0.0687 
     10 C10       -77.8792   27.6346  -70.7170 C.ar      11 UNK        -0.0823 
     11 C11       -76.7067   27.2350  -71.3634 C.ar      11 UNK        -0.0830 
     12 C12       -76.1468   28.0568  -72.3459 C.ar      11 UNK        -0.1021 
     13 C13       -76.7502   29.2735  -72.6785 C.ar      11 UNK        -0.0753 
     14 C14       -77.9234   29.6637  -72.0250 C.ar      11 UNK        -0.0933 
     15 C15       -76.1400   30.1523  -73.7574 C.3       11 UNK         0.0166 
     16 S16       -74.7329   31.1105  -73.1238 S.3       11 UNK        -0.2615 
     17 C17       -74.1192   31.8536  -74.6779 C.3       11 UNK        -0.0865 
     18 CA        -72.5934   32.1328  -74.6779 C.3       10 UNK         0.0862 
     19 C         -72.2218   33.3259  -73.7456 C.2       10 UNK         0.5551 
     20 N         -71.4450   33.1286  -72.6870 N.am      10 UNK        -0.7319 
     21 O         -72.6385   34.4538  -73.9989 O.2       10 UNK        -0.5018 
     22 N         -71.8169   30.8970  -74.4758 N.am      10 UNK        -0.4509 
     23 C         -70.5121   30.7632  -74.7582 C.2       10 UNK         0.4899 
     24 O         -69.8316   31.6504  -75.2736 O.2       10 UNK        -0.4839 
     25 CA        -69.8411   29.4258  -74.4167 C.3       9 UNK         0.0222 
     26 CB        -69.2729   29.4514  -72.9855 C.3       9 UNK        -0.1966 
     27 N         -70.7582   28.3004  -74.5842 N.am      9 UNK        -0.4218 
     28 C         -70.4171   27.0254  -74.7841 C.2       9 UNK         0.5020 
     29 O         -69.2522   26.6277  -74.8368 O.2       9 UNK        -0.5274 
     30 CA        -71.5649   26.0125  -74.9583 C.3       8 UNK         0.0270 
     31 CB        -72.1347   25.5869  -73.5911 C.3       8 UNK        -0.1976 
     32 N         -72.6362   26.4260  -75.8786 N.am      8 UNK        -0.4313 
     33 C         -73.4877   27.4569  -75.7958 C.2       8 UNK         0.5041 
     34 O         -73.4690   28.2821  -74.8823 O.2       8 UNK        -0.5577 
     35 CA        -74.5301   27.6156  -76.9180 C.3       7 UNK         0.0284 
     36 CB        -73.9448   28.3987  -78.1078 C.3       7 UNK        -0.1958 
     37 N         -75.1646   26.3610  -77.3455 N.am      7 UNK        -0.4454 
     38 C         -74.6265   25.2930  -77.9514 C.2       7 UNK         0.5089 
     39 O         -73.4527   25.2275  -78.3218 O.2       7 UNK        -0.5125 
     40 CA        -75.5573   24.0712  -78.0724 C.3       6 UNK         0.0408 
     41 CB        -74.8624   22.8254  -78.6601 C.3       6 UNK        -0.1791 
     42 N         -76.1932   23.7728  -76.7826 N.am      6 UNK        -0.4762 
     43 C         -75.5835   23.4553  -75.6282 C.2       6 UNK         0.5007 
     44 O         -74.3792   23.2187  -75.5312 O.2       6 UNK        -0.5032 
     45 CA        -76.4489   23.4284  -74.3504 C.3       5 UNK         0.0783 
     46 C46       -76.1824   24.6906  -73.4981 C.3       11 UNK        -0.0857 
     47 S47       -76.8458   24.5126  -71.8124 S.3       11 UNK        -0.2512 
     48 C48       -76.0456   25.9196  -70.9842 C.3       11 UNK         0.0225 
     49 N         -77.8798   23.2697  -74.6311 N.am      5 UNK        -0.4615 
     50 C         -78.4473   22.1343  -75.0564 C.2       4 UNK         0.5053 
     51 O         -77.8356   21.0778  -75.2151 O.2       4 UNK        -0.5105 
     52 CA        -79.9464   22.1969  -75.3813 C.3       4 UNK         0.0263 
     53 CB        -80.7853   21.9928  -74.1110 C.3       4 UNK        -0.1981 
     54 N         -80.3135   23.4574  -76.0344 N.am      4 UNK        -0.4224 
     55 C         -80.0202   23.7499  -77.3107 C.2       3 UNK         0.4895 
     56 O         -79.4713   22.9650  -78.0838 O.2       3 UNK        -0.5091 
     57 CA        -80.3702   25.1616  -77.8090 C.3       3 UNK         0.0250 
     58 CB        -81.8175   25.2137  -78.3232 C.3       3 UNK        -0.1996 
     59 N         -80.1722   26.1906  -76.7869 N.am      3 UNK        -0.4254 
     60 C         -78.9735   26.5890  -76.3360 C.2       2 UNK         0.5004 
     61 O         -77.9036   26.1547  -76.7588 O.2       2 UNK        -0.5226 
     62 CA        -78.9545   27.6349  -75.2101 C.3       2 UNK         0.0269 
     63 CB        -78.8508   29.0461  -75.8082 C.3       2 UNK        -0.1926 
     64 N         -80.1166   27.5745  -74.3209 N.am      2 UNK        -0.4687 
     65 C         -80.4771   26.5102  -73.5915 C.2       1 UNK         0.5165 
     66 O         -79.8676   25.4361  -73.5952 O.2       1 UNK        -0.5079 
     67 H67       -84.9997   23.8938  -73.2651 H         1 UNK         0.0900 
     68 H68       -83.9710   22.9881  -74.3738 H         1 UNK         0.0900 
     69 H69       -83.5690   23.0511  -72.6562 H         1 UNK         0.0900 
     70 H70       -82.6125   25.0007  -71.7839 H         1 UNK         0.2959 
     71 H71       -82.3945   27.4024  -73.2560 H         1 UNK         0.1079 
     72 H72       -80.5831   26.7351  -70.8884 H         1 UNK         0.0837 
     73 H73       -82.2832   27.0118  -70.6540 H         1 UNK         0.0837 
     74 H74       -79.8723   28.7501  -69.3760 H         1 UNK         0.0685 
     75 H75       -79.6778   30.3399  -70.0649 H         1 UNK         0.0685 
     76 H76       -78.3106   26.9991  -69.9558 H         1 UNK         0.1434 
     77 H77       -75.2384   27.7563  -72.8510 H         1 UNK         0.1329 
     78 H78       -78.3952   30.6030  -72.2788 H         1 UNK         0.1335 
     79 H79       -75.8178   29.5267  -74.5889 H         1 UNK         0.0680 
     80 H80       -76.8821   30.8436  -74.1584 H         1 UNK         0.0680 
     81 H81       -74.6819   32.7675  -74.8778 H         1 UNK         0.1032 
     82 H82       -74.3502   31.1820  -75.5063 H         1 UNK         0.1032 
     83 H83       -72.3495   32.4802  -75.6839 H         1 UNK         0.0461 
     84 H84       -71.2071   33.9080  -72.0944 H         1 UNK         0.3453 
     85 H85       -71.1072   32.2052  -72.4709 H         1 UNK         0.3453 
     86 H86       -72.3295   30.1380  -74.0474 H         1 UNK         0.2984 
     87 H87       -69.0128   29.2981  -75.1170 H         1 UNK         0.0554 
     88 H88       -68.6097   30.3057  -72.8424 H         1 UNK         0.0847 
     89 H89       -68.6912   28.5546  -72.7719 H         1 UNK         0.0847 
     90 H90       -70.0648   29.5212  -72.2390 H         1 UNK         0.0847 
     91 H91       -71.7582   28.5028  -74.6175 H         1 UNK         0.3141 
     92 H92       -71.1220   25.1248  -75.4129 H         1 UNK         0.0743 
     93 H93       -71.3363   25.2872  -72.9109 H         1 UNK         0.0784 
     94 H94       -72.8006   24.7314  -73.6969 H         1 UNK         0.0784 
     95 H95       -72.6890   26.3912  -73.1065 H         1 UNK         0.0784 
     96 H96       -72.7331   25.8496  -76.7129 H         1 UNK         0.3213 
     97 H97       -75.3405   28.2156  -76.5030 H         1 UNK         0.0855 
     98 H98       -73.1161   27.8702  -78.5796 H         1 UNK         0.0814 
     99 H99       -73.5658   29.3690  -77.7835 H         1 UNK         0.0814 
    100 H100      -74.7016   28.5845  -78.8697 H         1 UNK         0.0814 
    101 H101      -76.1477   26.2735  -77.0834 H         1 UNK         0.3105 
    102 H102      -76.3604   24.3563  -78.7537 H         1 UNK         0.0547 
    103 H103      -75.5529   21.9855  -78.7339 H         1 UNK         0.0837 
    104 H104      -74.0109   22.5082  -78.0576 H         1 UNK         0.0837 
    105 H105      -74.4886   23.0282  -79.6643 H         1 UNK         0.0837 
    106 H106      -77.1785   23.9988  -76.7319 H         1 UNK         0.3020 
    107 H107      -76.1187   22.5554  -73.7820 H         1 UNK         0.1245 
    108 H108      -76.6200   25.5743  -73.9653 H         1 UNK         0.0781 
    109 H109      -75.1125   24.8854  -73.4140 H         1 UNK         0.0781 
    110 H110      -74.9804   25.9366  -71.2204 H         1 UNK         0.0836 
    111 H111      -76.1126   25.7761  -69.9048 H         1 UNK         0.0836 
    112 H112      -78.4707   24.0730  -74.4444 H         1 UNK         0.3022 
    113 H113      -80.1696   21.3751  -76.0655 H         1 UNK         0.0747 
    114 H114      -81.8407   21.8849  -74.3548 H         1 UNK         0.0793 
    115 H115      -80.4851   21.0845  -73.5866 H         1 UNK         0.0793 
    116 H116      -80.6770   22.8229  -73.4119 H         1 UNK         0.0793 
    117 H117      -80.7370   24.1712  -75.4556 H         1 UNK         0.3047 
    118 H118      -79.7057   25.3884  -78.6459 H         1 UNK         0.0822 
    119 H119      -82.0543   26.1909  -78.7443 H         1 UNK         0.0807 
    120 H120      -82.5376   25.0060  -77.5310 H         1 UNK         0.0807 
    121 H121      -81.9778   24.4754  -79.1101 H         1 UNK         0.0807 
    122 H122      -81.0020   26.5865  -76.3673 H         1 UNK         0.2946 
    123 H123      -78.0685   27.4463  -74.6008 H         1 UNK         0.1144 
    124 H124      -78.8398   29.8088  -75.0304 H         1 UNK         0.0793 
    125 H125      -79.6869   29.2650  -76.4737 H         1 UNK         0.0793 
    126 H126      -77.9338   29.1575  -76.3885 H         1 UNK         0.0793 
    127 H127      -80.6623   28.4206  -74.2392 H         1 UNK         0.2896 
@<TRIPOS>BOND
     1    1    2 1    
     2    1   67 1    
     3    1   68 1    
     4    1   69 1    
     5    2    3 2    
     6    2    4 am   BACKBONE|DICT|INTERRES
     7    4    5 1    
     8    4   70 1    
     9    5    6 1    
    10    5   65 1    
    11    5   71 1    
    12    6    7 1    
    13    6   72 1    
    14    6   73 1    
    15    7    8 1    
    16    8    9 1    
    17    8   74 1    
    18    8   75 1    
    19    9   10 ar   
    20    9   14 ar   
    21   10   11 ar   
    22   10   76 1    
    23   11   12 ar   
    24   11   48 1    
    25   12   13 ar   
    26   12   77 1    
    27   13   14 ar   
    28   13   15 1    
    29   14   78 1    
    30   15   16 1    
    31   15   79 1    
    32   15   80 1    
    33   16   17 1    
    34   17   18 1    
    35   17   81 1    
    36   17   82 1    
    37   18   19 1    
    38   18   22 1    
    39   18   83 1    
    40   19   20 am   BACKBONE|DICT|INTERRES
    41   19   21 2    
    42   20   84 1    
    43   20   85 1    
    44   22   23 am   BACKBONE|DICT|INTERRES
    45   22   86 1    
    46   23   24 2    
    47   23   25 1    
    48   25   26 1    
    49   25   27 1    
    50   25   87 1    
    51   26   88 1    
    52   26   89 1    
    53   26   90 1    
    54   27   28 am   BACKBONE|DICT|INTERRES
    55   27   91 1    
    56   28   29 2    
    57   28   30 1    
    58   30   31 1    
    59   30   32 1    
    60   30   92 1    
    61   31   93 1    
    62   31   94 1    
    63   31   95 1    
    64   32   33 am   BACKBONE|DICT|INTERRES
    65   32   96 1    
    66   33   34 2    
    67   33   35 1    
    68   35   36 1    
    69   35   37 1    
    70   35   97 1    
    71   36   98 1    
    72   36   99 1    
    73   36  100 1    
    74   37   38 am   BACKBONE|DICT|INTERRES
    75   37  101 1    
    76   38   39 2    
    77   38   40 1    
    78   40   41 1    
    79   40   42 1    
    80   40  102 1    
    81   41  103 1    
    82   41  104 1    
    83   41  105 1    
    84   42   43 am   BACKBONE|DICT|INTERRES
    85   42  106 1    
    86   43   44 2    
    87   43   45 1    
    88   45   46 1    
    89   45   49 1    
    90   45  107 1    
    91   46   47 1    
    92   46  108 1    
    93   46  109 1    
    94   47   48 1    
    95   48  110 1    
    96   48  111 1    
    97   49   50 am   BACKBONE|DICT|INTERRES
    98   49  112 1    
    99   50   51 2    
   100   50   52 1    
   101   52   53 1    
   102   52   54 1    
   103   52  113 1    
   104   53  114 1    
   105   53  115 1    
   106   53  116 1    
   107   54   55 am   BACKBONE|DICT|INTERRES
   108   54  117 1    
   109   55   56 2    
   110   55   57 1    
   111   57   58 1    
   112   57   59 1    
   113   57  118 1    
   114   58  119 1    
   115   58  120 1    
   116   58  121 1    
   117   59   60 am   BACKBONE|DICT|INTERRES
   118   59  122 1    
   119   60   61 2    
   120   60   62 1    
   121   62   63 1    
   122   62   64 1    
   123   62  123 1    
   124   63  124 1    
   125   63  125 1    
   126   63  126 1    
   127   64   65 am   BACKBONE|DICT|INTERRES
   128   64  127 1    
   129   65   66 2    
@<TRIPOS>SUBSTRUCTURE
     1 UNK         1 GROUP             0       ****    0 ROOT    
