@<TRIPOS>MOLECULE
3R135
127   129    1
SMALL
USER_CHARGES


@<TRIPOS>ATOM
      1 CA        -79.0320   32.6999  -75.6593 C.3       0 UNK        -0.1998 
      2 C         -78.4229   31.3813  -75.2108 C.2       0 UNK         0.4909 
      3 O         -77.2244   31.1680  -75.3918 O.2       0 UNK        -0.5240 
      4 N         -79.2330   30.4931  -74.6235 N.am      1 UNK        -0.4739 
      5 CA        -78.8068   29.1730  -74.1435 C.3       1 UNK         0.0864 
      6 C6        -79.8586   28.5447  -73.1943 C.3       11 UNK        -0.0881 
      7 S7        -79.7701   29.2641  -71.5213 S.3       11 UNK        -0.2682 
      8 C8        -79.0206   27.8956  -70.5745 C.3       11 UNK         0.0289 
      9 C9        -77.5391   27.7233  -70.8850 C.ar      11 UNK        -0.0687 
     10 C10       -77.1207   26.8566  -71.8992 C.ar      11 UNK        -0.0823 
     11 C11       -75.7608   26.7047  -72.2007 C.ar      11 UNK        -0.0830 
     12 C12       -74.8195   27.4306  -71.4645 C.ar      11 UNK        -0.1021 
     13 C13       -75.2210   28.2881  -70.4364 C.ar      11 UNK        -0.0753 
     14 C14       -76.5826   28.4268  -70.1494 C.ar      11 UNK        -0.0933 
     15 C15       -74.1806   29.0404  -69.6182 C.3       11 UNK         0.0166 
     16 S16       -74.4348   30.8428  -69.6424 S.3       11 UNK        -0.2615 
     17 C17       -73.9779   31.2972  -71.3537 C.3       11 UNK        -0.0865 
     18 CA        -75.1830   31.7393  -72.2403 C.3       10 UNK         0.0862 
     19 C         -75.7797   33.1387  -71.8734 C.2       10 UNK         0.5551 
     20 N         -76.3604   33.8687  -72.8198 N.am      10 UNK        -0.7319 
     21 O         -75.7388   33.5742  -70.7260 O.2       10 UNK        -0.5018 
     22 N         -74.9111   31.5974  -73.6840 N.am      10 UNK        -0.4509 
     23 C         -73.9226   32.2044  -74.3590 C.2       10 UNK         0.4899 
     24 O         -72.9969   32.8168  -73.8248 O.2       10 UNK        -0.4839 
     25 CA        -74.0240   32.1691  -75.8947 C.3       9 UNK         0.0222 
     26 CB        -72.7148   32.5635  -76.6141 C.3       9 UNK        -0.1966 
     27 N         -74.5859   30.9126  -76.4010 N.am      9 UNK        -0.4218 
     28 C         -73.9892   29.7180  -76.4906 C.2       9 UNK         0.5020 
     29 O         -72.8169   29.4938  -76.1734 O.2       9 UNK        -0.5274 
     30 CA        -74.8519   28.5796  -77.0539 C.3       8 UNK         0.0270 
     31 CB        -75.3931   28.9055  -78.4625 C.3       8 UNK        -0.1976 
     32 N         -74.0381   27.3692  -77.0890 N.am      8 UNK        -0.4313 
     33 C         -74.4908   26.1156  -77.1597 C.2       8 UNK         0.5041 
     34 O         -75.6842   25.8205  -77.2699 O.2       8 UNK        -0.5577 
     35 CA        -73.4373   24.9987  -77.1018 C.3       7 UNK         0.0284 
     36 CB        -72.4081   25.1897  -75.9677 C.3       7 UNK        -0.1958 
     37 N         -74.1469   23.7382  -76.9305 N.am      7 UNK        -0.4454 
     38 C         -73.7045   22.5182  -77.2423 C.2       7 UNK         0.5089 
     39 O         -72.5794   22.2864  -77.6892 O.2       7 UNK        -0.5125 
     40 CA        -74.7116   21.3749  -77.0213 C.3       6 UNK         0.0408 
     41 CB        -74.0771   19.9708  -77.1153 C.3       6 UNK        -0.1791 
     42 N         -75.4758   21.5389  -75.7787 N.am      6 UNK        -0.4762 
     43 C         -75.0144   21.4843  -74.5156 C.2       6 UNK         0.5007 
     44 O         -73.8376   21.2689  -74.2230 O.2       6 UNK        -0.5032 
     45 CA        -76.0394   21.7037  -73.3737 C.3       5 UNK         0.0783 
     46 C46       -75.8677   23.1012  -72.7197 C.3       11 UNK        -0.0857 
     47 S47       -76.3873   24.4598  -73.8265 S.3       11 UNK        -0.2512 
     48 C48       -75.2724   25.8260  -73.3529 C.3       11 UNK         0.0225 
     49 N         -77.4274   21.4975  -73.8005 N.am      5 UNK        -0.4615 
     50 C         -77.9584   20.3607  -74.2657 C.2       4 UNK         0.5053 
     51 O         -77.3884   19.2712  -74.2021 O.2       4 UNK        -0.5105 
     52 CA        -79.3370   20.4519  -74.9545 C.3       4 UNK         0.0263 
     53 CB        -80.3824   19.6321  -74.1790 C.3       4 UNK        -0.1981 
     54 N         -79.8606   21.8120  -75.1565 N.am      4 UNK        -0.4224 
     55 C         -79.3146   22.7953  -75.8896 C.2       3 UNK         0.4895 
     56 O         -78.2442   22.6877  -76.4940 O.2       3 UNK        -0.5091 
     57 CA        -80.0998   24.1170  -75.9150 C.3       3 UNK         0.0250 
     58 CB        -80.4914   24.5890  -74.4967 C.3       3 UNK        -0.1996 
     59 N         -79.3372   25.1841  -76.5636 N.am      3 UNK        -0.4254 
     60 C         -79.8838   26.1993  -77.2434 C.2       2 UNK         0.5004 
     61 O         -81.0813   26.2674  -77.5306 O.2       2 UNK        -0.5226 
     62 CA        -78.9643   27.3909  -77.5678 C.3       2 UNK         0.0269 
     63 CB        -79.3381   28.0786  -78.8931 C.3       2 UNK        -0.1926 
     64 N         -79.0479   28.3684  -76.4783 N.am      2 UNK        -0.4687 
     65 C         -78.4662   28.1931  -75.2833 C.2       1 UNK         0.5165 
     66 O         -77.6887   27.2738  -75.0503 O.2       1 UNK        -0.5079 
     67 H67       -78.5751   33.5278  -75.1184 H         1 UNK         0.0900 
     68 H68       -80.1072   32.7324  -75.4845 H         1 UNK         0.0900 
     69 H69       -78.8567   32.8497  -76.7242 H         1 UNK         0.0900 
     70 H70       -80.2052   30.7245  -74.4758 H         1 UNK         0.2959 
     71 H71       -77.8755   29.3049  -73.5863 H         1 UNK         0.1079 
     72 H72       -80.8670   28.6877  -73.5865 H         1 UNK         0.0837 
     73 H73       -79.7382   27.4633  -73.1120 H         1 UNK         0.0837 
     74 H74       -79.5626   26.9689  -70.7693 H         1 UNK         0.0685 
     75 H75       -79.1496   28.0991  -69.5103 H         1 UNK         0.0685 
     76 H76       -77.8606   26.3175  -72.4716 H         1 UNK         0.1434 
     77 H77       -73.7677   27.3285  -71.6949 H         1 UNK         0.1329 
     78 H78       -76.8973   29.0918  -69.3567 H         1 UNK         0.1335 
     79 H79       -74.2370   28.6956  -68.5849 H         1 UNK         0.0680 
     80 H80       -73.1689   28.8164  -69.9601 H         1 UNK         0.0680 
     81 H81       -73.2279   32.0882  -71.3066 H         1 UNK         0.1032 
     82 H82       -73.4771   30.4444  -71.8142 H         1 UNK         0.1032 
     83 H83       -75.9930   31.0337  -72.0498 H         1 UNK         0.0461 
     84 H84       -76.7467   34.7681  -72.5799 H         1 UNK         0.3453 
     85 H85       -76.4073   33.5315  -73.7670 H         1 UNK         0.3453 
     86 H86       -75.6597   31.1802  -74.2295 H         1 UNK         0.2984 
     87 H87       -74.7617   32.9311  -76.1502 H         1 UNK         0.0554 
     88 H88       -72.8254   32.5170  -77.6973 H         1 UNK         0.0847 
     89 H89       -71.8825   31.9185  -76.3316 H         1 UNK         0.0847 
     90 H90       -72.4266   33.5849  -76.3625 H         1 UNK         0.0847 
     91 H91       -75.5846   30.9497  -76.5812 H         1 UNK         0.3141 
     92 H92       -75.6848   28.4225  -76.3676 H         1 UNK         0.0743 
     93 H93       -76.0640   29.7648  -78.4421 H         1 UNK         0.0784 
     94 H94       -74.5854   29.1337  -79.1589 H         1 UNK         0.0784 
     95 H95       -75.9621   28.0729  -78.8757 H         1 UNK         0.0784 
     96 H96       -73.0520   27.5497  -76.9375 H         1 UNK         0.3213 
     97 H97       -72.9201   24.9855  -78.0635 H         1 UNK         0.0855 
     98 H98       -72.8906   25.2522  -74.9937 H         1 UNK         0.0814 
     99 H99       -71.8201   26.0974  -76.1046 H         1 UNK         0.0814 
    100 H100      -71.7011   24.3608  -75.9310 H         1 UNK         0.0814 
    101 H101      -75.1113   23.8563  -76.6394 H         1 UNK         0.3105 
    102 H102      -75.4398   21.4558  -77.8297 H         1 UNK         0.0547 
    103 H103      -73.2779   19.8343  -76.3864 H         1 UNK         0.0837 
    104 H104      -74.8183   19.1885  -76.9523 H         1 UNK         0.0837 
    105 H105      -73.6437   19.8060  -78.1023 H         1 UNK         0.0837 
    106 H106      -76.4535   21.7842  -75.9053 H         1 UNK         0.3020 
    107 H107      -75.8188   20.9468  -72.6177 H         1 UNK         0.1245 
    108 H108      -74.8338   23.2510  -72.4035 H         1 UNK         0.0781 
    109 H109      -76.4667   23.1614  -71.8098 H         1 UNK         0.0781 
    110 H110      -75.1471   26.4699  -74.2240 H         1 UNK         0.0836 
    111 H111      -74.2865   25.4207  -73.1242 H         1 UNK         0.0836 
    112 H112      -77.9671   22.3439  -73.9051 H         1 UNK         0.3022 
    113 H113      -79.2182   20.0036  -75.9430 H         1 UNK         0.0747 
    114 H114      -81.3356   19.6001  -74.7073 H         1 UNK         0.0793 
    115 H115      -80.0552   18.5994  -74.0488 H         1 UNK         0.0793 
    116 H116      -80.5608   20.0443  -73.1850 H         1 UNK         0.0793 
    117 H117      -80.7363   22.0092  -74.6937 H         1 UNK         0.3047 
    118 H118      -81.0088   23.9231  -76.4885 H         1 UNK         0.0822 
    119 H119      -81.1403   23.8745  -73.9901 H         1 UNK         0.0807 
    120 H120      -81.0366   25.5325  -74.5315 H         1 UNK         0.0807 
    121 H121      -79.6117   24.7415  -73.8696 H         1 UNK         0.0807 
    122 H122      -78.3412   25.1927  -76.3718 H         1 UNK         0.2946 
    123 H123      -77.9381   27.0277  -77.6526 H         1 UNK         0.1144 
    124 H124      -79.2998   27.3698  -79.7212 H         1 UNK         0.0793 
    125 H125      -78.6456   28.8874  -79.1265 H         1 UNK         0.0793 
    126 H126      -80.3450   28.4969  -78.8669 H         1 UNK         0.0793 
    127 H127      -79.6930   29.1358  -76.5954 H         1 UNK         0.2896 
@<TRIPOS>BOND
     1    1    2 1    
     2    1   67 1    
     3    1   68 1    
     4    1   69 1    
     5    2    3 2    
     6    2    4 am   BACKBONE|DICT|INTERRES
     7    4    5 1    
     8    4   70 1    
     9    5    6 1    
    10    5   65 1    
    11    5   71 1    
    12    6    7 1    
    13    6   72 1    
    14    6   73 1    
    15    7    8 1    
    16    8    9 1    
    17    8   74 1    
    18    8   75 1    
    19    9   10 ar   
    20    9   14 ar   
    21   10   11 ar   
    22   10   76 1    
    23   11   12 ar   
    24   11   48 1    
    25   12   13 ar   
    26   12   77 1    
    27   13   14 ar   
    28   13   15 1    
    29   14   78 1    
    30   15   16 1    
    31   15   79 1    
    32   15   80 1    
    33   16   17 1    
    34   17   18 1    
    35   17   81 1    
    36   17   82 1    
    37   18   19 1    
    38   18   22 1    
    39   18   83 1    
    40   19   20 am   BACKBONE|DICT|INTERRES
    41   19   21 2    
    42   20   84 1    
    43   20   85 1    
    44   22   23 am   BACKBONE|DICT|INTERRES
    45   22   86 1    
    46   23   24 2    
    47   23   25 1    
    48   25   26 1    
    49   25   27 1    
    50   25   87 1    
    51   26   88 1    
    52   26   89 1    
    53   26   90 1    
    54   27   28 am   BACKBONE|DICT|INTERRES
    55   27   91 1    
    56   28   29 2    
    57   28   30 1    
    58   30   31 1    
    59   30   32 1    
    60   30   92 1    
    61   31   93 1    
    62   31   94 1    
    63   31   95 1    
    64   32   33 am   BACKBONE|DICT|INTERRES
    65   32   96 1    
    66   33   34 2    
    67   33   35 1    
    68   35   36 1    
    69   35   37 1    
    70   35   97 1    
    71   36   98 1    
    72   36   99 1    
    73   36  100 1    
    74   37   38 am   BACKBONE|DICT|INTERRES
    75   37  101 1    
    76   38   39 2    
    77   38   40 1    
    78   40   41 1    
    79   40   42 1    
    80   40  102 1    
    81   41  103 1    
    82   41  104 1    
    83   41  105 1    
    84   42   43 am   BACKBONE|DICT|INTERRES
    85   42  106 1    
    86   43   44 2    
    87   43   45 1    
    88   45   46 1    
    89   45   49 1    
    90   45  107 1    
    91   46   47 1    
    92   46  108 1    
    93   46  109 1    
    94   47   48 1    
    95   48  110 1    
    96   48  111 1    
    97   49   50 am   BACKBONE|DICT|INTERRES
    98   49  112 1    
    99   50   51 2    
   100   50   52 1    
   101   52   53 1    
   102   52   54 1    
   103   52  113 1    
   104   53  114 1    
   105   53  115 1    
   106   53  116 1    
   107   54   55 am   BACKBONE|DICT|INTERRES
   108   54  117 1    
   109   55   56 2    
   110   55   57 1    
   111   57   58 1    
   112   57   59 1    
   113   57  118 1    
   114   58  119 1    
   115   58  120 1    
   116   58  121 1    
   117   59   60 am   BACKBONE|DICT|INTERRES
   118   59  122 1    
   119   60   61 2    
   120   60   62 1    
   121   62   63 1    
   122   62   64 1    
   123   62  123 1    
   124   63  124 1    
   125   63  125 1    
   126   63  126 1    
   127   64   65 am   BACKBONE|DICT|INTERRES
   128   64  127 1    
   129   65   66 2    
@<TRIPOS>SUBSTRUCTURE
     1 UNK         1 GROUP             0       ****    0 ROOT    
