@<TRIPOS>MOLECULE
3R135
127   129    1
SMALL
USER_CHARGES


@<TRIPOS>ATOM
      1 CA        -83.2189   27.9873  -75.4167 C.3       0 UNK        -0.1998 
      2 C         -81.7466   27.6429  -75.2619 C.2       0 UNK         0.4909 
      3 O         -81.3255   26.5659  -75.6849 O.2       0 UNK        -0.5240 
      4 N         -80.9541   28.5584  -74.6843 N.am      1 UNK        -0.4739 
      5 CA        -79.5259   28.4051  -74.3446 C.3       1 UNK         0.0864 
      6 C6        -79.2876   27.4359  -73.1589 C.3       11 UNK        -0.0881 
      7 S7        -80.2004   27.9111  -71.6471 S.3       11 UNK        -0.2682 
      8 C8        -78.9765   28.9212  -70.7381 C.3       11 UNK         0.0289 
      9 C9        -77.6302   28.2253  -70.5768 C.ar      11 UNK        -0.0687 
     10 C10       -77.5625   26.9253  -70.0705 C.ar      11 UNK        -0.0823 
     11 C11       -76.3469   26.2388  -70.0368 C.ar      11 UNK        -0.0830 
     12 C12       -75.1761   26.8879  -70.4418 C.ar      11 UNK        -0.1021 
     13 C13       -75.2222   28.2038  -70.9133 C.ar      11 UNK        -0.0753 
     14 C14       -76.4564   28.8595  -70.9937 C.ar      11 UNK        -0.0933 
     15 C15       -73.9499   28.8849  -71.4024 C.3       11 UNK         0.0166 
     16 S16       -73.7468   30.5675  -70.7292 S.3       11 UNK        -0.2615 
     17 C17       -72.4966   31.2623  -71.8654 C.3       11 UNK        -0.0865 
     18 CA        -73.0996   32.2938  -72.8682 C.3       10 UNK         0.0862 
     19 C         -72.0042   33.0752  -73.6588 C.2       10 UNK         0.5551 
     20 N         -72.2467   33.4750  -74.9011 N.am      10 UNK        -0.7319 
     21 O         -70.9315   33.3566  -73.1293 O.2       10 UNK        -0.5018 
     22 N         -74.1850   31.7315  -73.6982 N.am      10 UNK        -0.4509 
     23 C         -74.0595   30.7399  -74.5903 C.2       10 UNK         0.4899 
     24 O         -72.9883   30.1923  -74.8530 O.2       10 UNK        -0.4839 
     25 CA        -75.3726   30.2676  -75.2442 C.3       9 UNK         0.0222 
     26 CB        -75.9715   31.3338  -76.1855 C.3       9 UNK        -0.1966 
     27 N         -75.2537   28.9648  -75.9114 N.am      9 UNK        -0.4218 
     28 C         -74.5990   28.6461  -77.0377 C.2       9 UNK         0.5020 
     29 O         -74.0350   29.4548  -77.7783 O.2       9 UNK        -0.5274 
     30 CA        -74.5942   27.1424  -77.3791 C.3       8 UNK         0.0270 
     31 CB        -74.0132   26.8346  -78.7752 C.3       8 UNK        -0.1976 
     32 N         -73.9235   26.3461  -76.3447 N.am      8 UNK        -0.4313 
     33 C         -72.6517   26.4634  -75.9232 C.2       8 UNK         0.5041 
     34 O         -71.8308   27.2539  -76.3889 O.2       8 UNK        -0.5577 
     35 CA        -72.2010   25.5201  -74.7912 C.3       7 UNK         0.0284 
     36 CB        -72.4039   26.1978  -73.4250 C.3       7 UNK        -0.1958 
     37 N         -72.8944   24.2308  -74.7928 N.am      7 UNK        -0.4454 
     38 C         -72.8633   23.3269  -75.7826 C.2       7 UNK         0.5089 
     39 O         -72.1394   23.4210  -76.7741 O.2       7 UNK        -0.5125 
     40 CA        -73.8139   22.1197  -75.6585 C.3       6 UNK         0.0408 
     41 CB        -73.0168   20.8373  -75.3684 C.3       6 UNK        -0.1791 
     42 N         -74.8679   22.2670  -74.6447 N.am      6 UNK        -0.4762 
     43 C         -75.8580   23.1718  -74.6686 C.2       6 UNK         0.5007 
     44 O         -75.9690   24.0489  -75.5303 O.2       6 UNK        -0.5032 
     45 CA        -76.8471   23.1217  -73.4957 C.3       5 UNK         0.0783 
     46 C46       -76.3818   24.0596  -72.3542 C.3       11 UNK        -0.0857 
     47 S47       -77.2650   23.7373  -70.7919 S.3       11 UNK        -0.2512 
     48 C48       -76.3199   24.7748  -69.6244 C.3       11 UNK         0.0225 
     49 N         -78.1654   23.4794  -74.0189 N.am      5 UNK        -0.4615 
     50 C         -79.2790   22.7601  -73.8401 C.2       4 UNK         0.5053 
     51 O         -79.3424   21.7676  -73.1134 O.2       4 UNK        -0.5105 
     52 CA        -80.5401   23.1871  -74.6132 C.3       4 UNK         0.0263 
     53 CB        -81.5364   23.9080  -73.6899 C.3       4 UNK        -0.1981 
     54 N         -80.2801   24.0076  -75.8030 N.am      4 UNK        -0.4224 
     55 C         -79.7417   23.5322  -76.9364 C.2       3 UNK         0.4895 
     56 O         -79.3233   22.3797  -77.0542 O.2       3 UNK        -0.5091 
     57 CA        -79.6822   24.4604  -78.1589 C.3       3 UNK         0.0250 
     58 CB        -80.9887   24.3640  -78.9651 C.3       3 UNK        -0.1996 
     59 N         -79.4314   25.8644  -77.8202 N.am      3 UNK        -0.4254 
     60 C         -78.5040   26.6290  -78.4181 C.2       2 UNK         0.5004 
     61 O         -77.7223   26.2123  -79.2735 O.2       2 UNK        -0.5226 
     62 CA        -78.4333   28.1219  -78.0365 C.3       2 UNK         0.0269 
     63 CB        -79.0673   28.9862  -79.1383 C.3       2 UNK        -0.1926 
     64 N         -79.0655   28.4500  -76.7591 N.am      2 UNK        -0.4687 
     65 C         -78.6348   28.0452  -75.5570 C.2       1 UNK         0.5165 
     66 O         -77.5955   27.4024  -75.3948 O.2       1 UNK        -0.5079 
     67 H67       -83.4974   27.9758  -76.4700 H         1 UNK         0.0900 
     68 H68       -83.8295   27.2514  -74.8945 H         1 UNK         0.0900 
     69 H69       -83.4528   28.9718  -75.0123 H         1 UNK         0.0900 
     70 H70       -81.3683   29.4278  -74.3772 H         1 UNK         0.2959 
     71 H71       -79.1831   29.3919  -74.0296 H         1 UNK         0.1079 
     72 H72       -79.5883   26.4267  -73.4359 H         1 UNK         0.0837 
     73 H73       -78.2246   27.3572  -72.9316 H         1 UNK         0.0837 
     74 H74       -78.8594   29.8725  -71.2593 H         1 UNK         0.0685 
     75 H75       -79.3750   29.1564  -69.7505 H         1 UNK         0.0685 
     76 H76       -78.4700   26.4196  -69.7692 H         1 UNK         0.1434 
     77 H77       -74.2332   26.3587  -70.4176 H         1 UNK         0.1329 
     78 H78       -76.5018   29.8622  -71.3959 H         1 UNK         0.1335 
     79 H79       -73.9818   28.9154  -72.4898 H         1 UNK         0.0680 
     80 H80       -73.0687   28.2994  -71.1357 H         1 UNK         0.0680 
     81 H81       -71.7381   31.7395  -71.2423 H         1 UNK         0.1032 
     82 H82       -71.9791   30.4606  -72.3945 H         1 UNK         0.1032 
     83 H83       -73.5832   33.0647  -72.2672 H         1 UNK         0.0461 
     84 H84       -73.1231   33.2532  -75.3448 H         1 UNK         0.3453 
     85 H85       -71.5399   33.9894  -75.4027 H         1 UNK         0.3453 
     86 H86       -75.0978   32.1334  -73.5411 H         1 UNK         0.2984 
     87 H87       -76.0840   30.1051  -74.4328 H         1 UNK         0.0554 
     88 H88       -76.2309   32.2419  -75.6406 H         1 UNK         0.0847 
     89 H89       -76.8839   30.9745  -76.6619 H         1 UNK         0.0847 
     90 H90       -75.2741   31.6211  -76.9728 H         1 UNK         0.0847 
     91 H91       -75.7370   28.2063  -75.4404 H         1 UNK         0.3141 
     92 H92       -75.6333   26.8122  -77.3812 H         1 UNK         0.0743 
     93 H93       -72.9719   27.1463  -78.8619 H         1 UNK         0.0784 
     94 H94       -74.0644   25.7687  -78.9975 H         1 UNK         0.0784 
     95 H95       -74.5757   27.3550  -79.5514 H         1 UNK         0.0784 
     96 H96       -74.5040   25.6392  -75.9056 H         1 UNK         0.3213 
     97 H97       -71.1352   25.3253  -74.9284 H         1 UNK         0.0855 
     98 H98       -73.4592   26.3799  -73.2175 H         1 UNK         0.0814 
     99 H99       -71.8954   27.1628  -73.3906 H         1 UNK         0.0814 
    100 H100      -71.9999   25.5914  -72.6143 H         1 UNK         0.0814 
    101 H101      -73.5029   24.0402  -74.0118 H         1 UNK         0.3105 
    102 H102      -74.3053   22.0027  -76.6267 H         1 UNK         0.0547 
    103 H103      -72.2476   20.6749  -76.1249 H         1 UNK         0.0837 
    104 H104      -72.5155   20.8831  -74.4008 H         1 UNK         0.0837 
    105 H105      -73.6607   19.9577  -75.3739 H         1 UNK         0.0837 
    106 H106      -74.8409   21.5997  -73.8859 H         1 UNK         0.3020 
    107 H107      -76.8610   22.0939  -73.1248 H         1 UNK         0.1245 
    108 H108      -76.5205   25.1055  -72.6366 H         1 UNK         0.0781 
    109 H109      -75.3161   23.9329  -72.1534 H         1 UNK         0.0781 
    110 H110      -75.2960   24.4033  -69.5599 H         1 UNK         0.0836 
    111 H111      -76.7492   24.6726  -68.6268 H         1 UNK         0.0836 
    112 H112      -78.1689   24.2369  -74.6887 H         1 UNK         0.3022 
    113 H113      -81.0222   22.2678  -74.9531 H         1 UNK         0.0747 
    114 H114      -82.4610   24.1485  -74.2151 H         1 UNK         0.0793 
    115 H115      -81.8020   23.2801  -72.8385 H         1 UNK         0.0793 
    116 H116      -81.1298   24.8354  -73.2909 H         1 UNK         0.0793 
    117 H117      -80.6410   24.9612  -75.7781 H         1 UNK         0.3047 
    118 H118      -78.8742   24.0777  -78.7863 H         1 UNK         0.0822 
    119 H119      -80.9220   24.9301  -79.8943 H         1 UNK         0.0807 
    120 H120      -81.8394   24.7469  -78.3997 H         1 UNK         0.0807 
    121 H121      -81.2104   23.3296  -79.2317 H         1 UNK         0.0807 
    122 H122      -80.0318   26.2802  -77.1143 H         1 UNK         0.2946 
    123 H123      -77.3784   28.3885  -77.9679 H         1 UNK         0.1144 
    124 H124      -78.9486   30.0492  -78.9274 H         1 UNK         0.0793 
    125 H125      -80.1328   28.7806  -79.2494 H         1 UNK         0.0793 
    126 H126      -78.5965   28.7959  -80.1040 H         1 UNK         0.0793 
    127 H127      -79.9349   28.9624  -76.8001 H         1 UNK         0.2896 
@<TRIPOS>BOND
     1    1    2 1    
     2    1   67 1    
     3    1   68 1    
     4    1   69 1    
     5    2    3 2    
     6    2    4 am   BACKBONE|DICT|INTERRES
     7    4    5 1    
     8    4   70 1    
     9    5    6 1    
    10    5   65 1    
    11    5   71 1    
    12    6    7 1    
    13    6   72 1    
    14    6   73 1    
    15    7    8 1    
    16    8    9 1    
    17    8   74 1    
    18    8   75 1    
    19    9   10 ar   
    20    9   14 ar   
    21   10   11 ar   
    22   10   76 1    
    23   11   12 ar   
    24   11   48 1    
    25   12   13 ar   
    26   12   77 1    
    27   13   14 ar   
    28   13   15 1    
    29   14   78 1    
    30   15   16 1    
    31   15   79 1    
    32   15   80 1    
    33   16   17 1    
    34   17   18 1    
    35   17   81 1    
    36   17   82 1    
    37   18   19 1    
    38   18   22 1    
    39   18   83 1    
    40   19   20 am   BACKBONE|DICT|INTERRES
    41   19   21 2    
    42   20   84 1    
    43   20   85 1    
    44   22   23 am   BACKBONE|DICT|INTERRES
    45   22   86 1    
    46   23   24 2    
    47   23   25 1    
    48   25   26 1    
    49   25   27 1    
    50   25   87 1    
    51   26   88 1    
    52   26   89 1    
    53   26   90 1    
    54   27   28 am   BACKBONE|DICT|INTERRES
    55   27   91 1    
    56   28   29 2    
    57   28   30 1    
    58   30   31 1    
    59   30   32 1    
    60   30   92 1    
    61   31   93 1    
    62   31   94 1    
    63   31   95 1    
    64   32   33 am   BACKBONE|DICT|INTERRES
    65   32   96 1    
    66   33   34 2    
    67   33   35 1    
    68   35   36 1    
    69   35   37 1    
    70   35   97 1    
    71   36   98 1    
    72   36   99 1    
    73   36  100 1    
    74   37   38 am   BACKBONE|DICT|INTERRES
    75   37  101 1    
    76   38   39 2    
    77   38   40 1    
    78   40   41 1    
    79   40   42 1    
    80   40  102 1    
    81   41  103 1    
    82   41  104 1    
    83   41  105 1    
    84   42   43 am   BACKBONE|DICT|INTERRES
    85   42  106 1    
    86   43   44 2    
    87   43   45 1    
    88   45   46 1    
    89   45   49 1    
    90   45  107 1    
    91   46   47 1    
    92   46  108 1    
    93   46  109 1    
    94   47   48 1    
    95   48  110 1    
    96   48  111 1    
    97   49   50 am   BACKBONE|DICT|INTERRES
    98   49  112 1    
    99   50   51 2    
   100   50   52 1    
   101   52   53 1    
   102   52   54 1    
   103   52  113 1    
   104   53  114 1    
   105   53  115 1    
   106   53  116 1    
   107   54   55 am   BACKBONE|DICT|INTERRES
   108   54  117 1    
   109   55   56 2    
   110   55   57 1    
   111   57   58 1    
   112   57   59 1    
   113   57  118 1    
   114   58  119 1    
   115   58  120 1    
   116   58  121 1    
   117   59   60 am   BACKBONE|DICT|INTERRES
   118   59  122 1    
   119   60   61 2    
   120   60   62 1    
   121   62   63 1    
   122   62   64 1    
   123   62  123 1    
   124   63  124 1    
   125   63  125 1    
   126   63  126 1    
   127   64   65 am   BACKBONE|DICT|INTERRES
   128   64  127 1    
   129   65   66 2    
@<TRIPOS>SUBSTRUCTURE
     1 UNK         1 GROUP             0       ****    0 ROOT    
