@<TRIPOS>MOLECULE
3R135
127   129    1
SMALL
USER_CHARGES


@<TRIPOS>ATOM
      1 CA        -82.5360   27.2609  -71.9619 C.3       0 UNK        -0.1998 
      2 C         -82.6007   27.8793  -73.3503 C.2       0 UNK         0.4909 
      3 O         -83.5615   27.6438  -74.0833 O.2       0 UNK        -0.5240 
      4 N         -81.5861   28.6757  -73.7137 N.am      1 UNK        -0.4739 
      5 CA        -81.4552   29.3285  -75.0222 C.3       1 UNK         0.0864 
      6 C6        -80.4423   30.5042  -74.9906 C.3       11 UNK        -0.0881 
      7 S7        -78.7556   30.0284  -74.4708 S.3       11 UNK        -0.2682 
      8 C8        -78.7500   30.5160  -72.7162 C.3       11 UNK         0.0289 
      9 C9        -78.0009   29.4921  -71.8787 C.ar      11 UNK        -0.0687 
     10 C10       -78.6470   28.3271  -71.4579 C.ar      11 UNK        -0.0823 
     11 C11       -77.9695   27.3621  -70.7110 C.ar      11 UNK        -0.0830 
     12 C12       -76.6274   27.5736  -70.3769 C.ar      11 UNK        -0.1021 
     13 C13       -75.9723   28.7482  -70.7705 C.ar      11 UNK        -0.0753 
     14 C14       -76.6662   29.7024  -71.5228 C.ar      11 UNK        -0.0933 
     15 C15       -74.5309   29.0018  -70.3450 C.3       11 UNK         0.0166 
     16 S16       -73.3418   28.7364  -71.6989 S.3       11 UNK        -0.2615 
     17 C17       -73.0738   30.4392  -72.3053 C.3       11 UNK        -0.0865 
     18 CA        -72.5433   30.5426  -73.7622 C.3       10 UNK         0.0862 
     19 C         -71.0989   30.0014  -73.9707 C.2       10 UNK         0.5551 
     20 N         -70.7371   29.5508  -75.1673 N.am      10 UNK        -0.7319 
     21 O         -70.2807   30.0214  -73.0540 O.2       10 UNK        -0.5018 
     22 N         -73.4944   30.0076  -74.7488 N.am      10 UNK        -0.4509 
     23 C         -74.2540   30.7478  -75.5660 C.2       10 UNK         0.4899 
     24 O         -74.3428   31.9743  -75.4845 O.2       10 UNK        -0.4839 
     25 CA        -75.0277   30.0009  -76.6777 C.3       9 UNK         0.0222 
     26 CB        -75.4929   30.9449  -77.8068 C.3       9 UNK        -0.1966 
     27 N         -74.3102   28.8497  -77.2509 N.am      9 UNK        -0.4218 
     28 C         -73.0816   28.8414  -77.7941 C.2       9 UNK         0.5020 
     29 O         -72.3334   29.8197  -77.8256 O.2       9 UNK        -0.5274 
     30 CA        -72.5894   27.4851  -78.3205 C.3       8 UNK         0.0270 
     31 CB        -71.1660   27.5381  -78.9126 C.3       8 UNK        -0.1976 
     32 N         -72.6437   26.5348  -77.2175 N.am      8 UNK        -0.4313 
     33 C         -72.7319   25.2067  -77.2898 C.2       8 UNK         0.5041 
     34 O         -72.7315   24.5735  -78.3454 O.2       8 UNK        -0.5577 
     35 CA        -72.8534   24.4593  -75.9481 C.3       7 UNK         0.0284 
     36 CB        -71.5133   24.4613  -75.1862 C.3       7 UNK        -0.1958 
     37 N         -73.9576   24.9214  -75.0890 N.am      7 UNK        -0.4454 
     38 C         -74.1371   26.1205  -74.5123 C.2       7 UNK         0.5089 
     39 O         -73.3647   27.0702  -74.6571 O.2       7 UNK        -0.5125 
     40 CA        -75.4122   26.3386  -73.6830 C.3       6 UNK         0.0408 
     41 CB        -76.2838   27.4280  -74.3174 C.3       6 UNK        -0.1791 
     42 N         -76.2302   25.1414  -73.4927 N.am      6 UNK        -0.4762 
     43 C         -76.0206   24.2445  -72.5171 C.2       6 UNK         0.5007 
     44 O         -75.0301   24.2565  -71.7853 O.2       6 UNK        -0.5032 
     45 CA        -77.0808   23.1472  -72.3139 C.3       5 UNK         0.0783 
     46 C46       -78.1170   23.5203  -71.2243 C.3       11 UNK        -0.0857 
     47 S47       -79.1445   24.9902  -71.5931 S.3       11 UNK        -0.2512 
     48 C48       -78.7184   26.1267  -70.2278 C.3       11 UNK         0.0225 
     49 N         -77.7041   22.7654  -73.5844 N.am      5 UNK        -0.4615 
     50 C         -77.6768   21.5240  -74.0887 C.2       4 UNK         0.5053 
     51 O         -77.2551   20.5424  -73.4758 O.2       4 UNK        -0.5105 
     52 CA        -78.1714   21.3349  -75.5358 C.3       4 UNK         0.0263 
     53 CB        -79.6606   20.9539  -75.5462 C.3       4 UNK        -0.1981 
     54 N         -77.9699   22.5055  -76.3938 N.am      4 UNK        -0.4224 
     55 C         -76.8012   23.1213  -76.6289 C.2       3 UNK         0.4895 
     56 O         -75.7180   22.7210  -76.2045 O.2       3 UNK        -0.5091 
     57 CA        -76.8444   24.4363  -77.4303 C.3       3 UNK         0.0250 
     58 CB        -76.3165   24.2137  -78.8561 C.3       3 UNK        -0.1996 
     59 N         -78.1663   25.0710  -77.5012 N.am      3 UNK        -0.4254 
     60 C         -78.8831   25.5074  -76.4562 C.2       2 UNK         0.5004 
     61 O         -78.5329   25.3837  -75.2784 O.2       2 UNK        -0.5226 
     62 CA        -80.2492   26.1097  -76.7897 C.3       2 UNK         0.0269 
     63 CB        -81.3446   25.0325  -76.7093 C.3       2 UNK        -0.1926 
     64 N         -80.5569   27.1802  -75.8477 N.am      2 UNK        -0.4687 
     65 C         -81.1605   28.3335  -76.1675 C.2       1 UNK         0.5165 
     66 O         -81.5064   28.6242  -77.3142 O.2       1 UNK        -0.5079 
     67 H67       -82.0303   26.2964  -72.0025 H         1 UNK         0.0900 
     68 H68       -82.0050   27.9031  -71.2601 H         1 UNK         0.0900 
     69 H69       -83.5403   27.1018  -71.5700 H         1 UNK         0.0900 
     70 H70       -80.8174   28.8337  -73.0817 H         1 UNK         0.2959 
     71 H71       -82.4308   29.7606  -75.2574 H         1 UNK         0.1079 
     72 H72       -80.8139   31.2924  -74.3342 H         1 UNK         0.0837 
     73 H73       -80.3733   30.9679  -75.9766 H         1 UNK         0.0837 
     74 H74       -78.2935   31.5024  -72.6217 H         1 UNK         0.0685 
     75 H75       -79.7684   30.6139  -72.3382 H         1 UNK         0.0685 
     76 H76       -79.6805   28.1593  -71.7140 H         1 UNK         0.1434 
     77 H77       -76.0972   26.8331  -69.7937 H         1 UNK         0.1329 
     78 H78       -76.1715   30.6106  -71.8331 H         1 UNK         0.1335 
     79 H79       -74.4321   30.0143  -69.9509 H         1 UNK         0.0680 
     80 H80       -74.2632   28.3357  -69.5234 H         1 UNK         0.0680 
     81 H81       -74.0065   30.9967  -72.2345 H         1 UNK         0.1032 
     82 H82       -72.3874   30.9396  -71.6200 H         1 UNK         0.1032 
     83 H83       -72.4198   31.6102  -73.9510 H         1 UNK         0.0461 
     84 H84       -69.7975   29.2131  -75.2999 H         1 UNK         0.3453 
     85 H85       -71.3656   29.6250  -75.9570 H         1 UNK         0.3453 
     86 H86       -73.4739   28.9962  -74.8470 H         1 UNK         0.2984 
     87 H87       -75.9268   29.6040  -76.2070 H         1 UNK         0.0554 
     88 H88       -76.0654   30.4084  -78.5632 H         1 UNK         0.0847 
     89 H89       -74.6488   31.4257  -78.3025 H         1 UNK         0.0847 
     90 H90       -76.1372   31.7348  -77.4184 H         1 UNK         0.0847 
     91 H91       -74.8209   27.9787  -77.2527 H         1 UNK         0.3141 
     92 H92       -73.2827   27.1666  -79.1018 H         1 UNK         0.0743 
     93 H93       -70.4295   27.8281  -78.1623 H         1 UNK         0.0784 
     94 H94       -70.8675   26.5711  -79.3176 H         1 UNK         0.0784 
     95 H95       -71.1082   28.2611  -79.7272 H         1 UNK         0.0784 
     96 H96       -72.7014   26.9356  -76.2799 H         1 UNK         0.3213 
     97 H97       -73.0847   23.4212  -76.1922 H         1 UNK         0.0855 
     98 H98       -71.2084   25.4655  -74.8896 H         1 UNK         0.0814 
     99 H99       -70.7143   24.0504  -75.8047 H         1 UNK         0.0814 
    100 H100      -71.5716   23.8512  -74.2849 H         1 UNK         0.0814 
    101 H101      -74.6893   24.2341  -74.9515 H         1 UNK         0.3105 
    102 H102      -75.1028   26.6944  -72.7005 H         1 UNK         0.0547 
    103 H103      -75.8171   28.4049  -74.1996 H         1 UNK         0.0837 
    104 H104      -76.4532   27.2559  -75.3801 H         1 UNK         0.0837 
    105 H105      -77.2578   27.4843  -73.8332 H         1 UNK         0.0837 
    106 H106      -77.0891   25.1080  -74.0347 H         1 UNK         0.3020 
    107 H107      -76.5189   22.2950  -71.9240 H         1 UNK         0.1245 
    108 H108      -77.6081   23.6448  -70.2678 H         1 UNK         0.0781 
    109 H109      -78.7952   22.6788  -71.0752 H         1 UNK         0.0781 
    110 H110      -78.1517   25.6165  -69.4489 H         1 UNK         0.0836 
    111 H111      -79.6457   26.4456  -69.7496 H         1 UNK         0.0836 
    112 H112      -78.0982   23.5140  -74.1402 H         1 UNK         0.3022 
    113 H113      -77.6005   20.5116  -75.9700 H         1 UNK         0.0747 
    114 H114      -80.0055   20.7223  -76.5541 H         1 UNK         0.0793 
    115 H115      -79.8414   20.0695  -74.9334 H         1 UNK         0.0793 
    116 H116      -80.2854   21.7567  -75.1519 H         1 UNK         0.0793 
    117 H117      -78.8005   22.9166  -76.7920 H         1 UNK         0.3047 
    118 H118      -76.1757   25.1363  -76.9267 H         1 UNK         0.0822 
    119 H119      -76.9729   23.5613  -79.4332 H         1 UNK         0.0807 
    120 H120      -75.3297   23.7485  -78.8403 H         1 UNK         0.0807 
    121 H121      -76.2164   25.1558  -79.3954 H         1 UNK         0.0807 
    122 H122      -78.5480   25.1891  -78.4292 H         1 UNK         0.2946 
    123 H123      -80.2106   26.5090  -77.8060 H         1 UNK         0.1144 
    124 H124      -82.3237   25.4465  -76.9516 H         1 UNK         0.0793 
    125 H125      -81.4063   24.5954  -75.7115 H         1 UNK         0.0793 
    126 H126      -81.1539   24.2211  -77.4128 H         1 UNK         0.0793 
    127 H127      -80.2381   27.0302  -74.8995 H         1 UNK         0.2896 
@<TRIPOS>BOND
     1    1    2 1    
     2    1   67 1    
     3    1   68 1    
     4    1   69 1    
     5    2    3 2    
     6    2    4 am   BACKBONE|DICT|INTERRES
     7    4    5 1    
     8    4   70 1    
     9    5    6 1    
    10    5   65 1    
    11    5   71 1    
    12    6    7 1    
    13    6   72 1    
    14    6   73 1    
    15    7    8 1    
    16    8    9 1    
    17    8   74 1    
    18    8   75 1    
    19    9   10 ar   
    20    9   14 ar   
    21   10   11 ar   
    22   10   76 1    
    23   11   12 ar   
    24   11   48 1    
    25   12   13 ar   
    26   12   77 1    
    27   13   14 ar   
    28   13   15 1    
    29   14   78 1    
    30   15   16 1    
    31   15   79 1    
    32   15   80 1    
    33   16   17 1    
    34   17   18 1    
    35   17   81 1    
    36   17   82 1    
    37   18   19 1    
    38   18   22 1    
    39   18   83 1    
    40   19   20 am   BACKBONE|DICT|INTERRES
    41   19   21 2    
    42   20   84 1    
    43   20   85 1    
    44   22   23 am   BACKBONE|DICT|INTERRES
    45   22   86 1    
    46   23   24 2    
    47   23   25 1    
    48   25   26 1    
    49   25   27 1    
    50   25   87 1    
    51   26   88 1    
    52   26   89 1    
    53   26   90 1    
    54   27   28 am   BACKBONE|DICT|INTERRES
    55   27   91 1    
    56   28   29 2    
    57   28   30 1    
    58   30   31 1    
    59   30   32 1    
    60   30   92 1    
    61   31   93 1    
    62   31   94 1    
    63   31   95 1    
    64   32   33 am   BACKBONE|DICT|INTERRES
    65   32   96 1    
    66   33   34 2    
    67   33   35 1    
    68   35   36 1    
    69   35   37 1    
    70   35   97 1    
    71   36   98 1    
    72   36   99 1    
    73   36  100 1    
    74   37   38 am   BACKBONE|DICT|INTERRES
    75   37  101 1    
    76   38   39 2    
    77   38   40 1    
    78   40   41 1    
    79   40   42 1    
    80   40  102 1    
    81   41  103 1    
    82   41  104 1    
    83   41  105 1    
    84   42   43 am   BACKBONE|DICT|INTERRES
    85   42  106 1    
    86   43   44 2    
    87   43   45 1    
    88   45   46 1    
    89   45   49 1    
    90   45  107 1    
    91   46   47 1    
    92   46  108 1    
    93   46  109 1    
    94   47   48 1    
    95   48  110 1    
    96   48  111 1    
    97   49   50 am   BACKBONE|DICT|INTERRES
    98   49  112 1    
    99   50   51 2    
   100   50   52 1    
   101   52   53 1    
   102   52   54 1    
   103   52  113 1    
   104   53  114 1    
   105   53  115 1    
   106   53  116 1    
   107   54   55 am   BACKBONE|DICT|INTERRES
   108   54  117 1    
   109   55   56 2    
   110   55   57 1    
   111   57   58 1    
   112   57   59 1    
   113   57  118 1    
   114   58  119 1    
   115   58  120 1    
   116   58  121 1    
   117   59   60 am   BACKBONE|DICT|INTERRES
   118   59  122 1    
   119   60   61 2    
   120   60   62 1    
   121   62   63 1    
   122   62   64 1    
   123   62  123 1    
   124   63  124 1    
   125   63  125 1    
   126   63  126 1    
   127   64   65 am   BACKBONE|DICT|INTERRES
   128   64  127 1    
   129   65   66 2    
@<TRIPOS>SUBSTRUCTURE
     1 UNK         1 GROUP             0       ****    0 ROOT    
