@<TRIPOS>MOLECULE
3R135
127   129    1
SMALL
USER_CHARGES


@<TRIPOS>ATOM
      1 CA        -77.9188   25.7513  -69.8259 C.3       0 UNK        -0.1998 
      2 C         -78.8343   25.6752  -71.0361 C.2       0 UNK         0.4909 
      3 O         -78.3604   25.5946  -72.1687 O.2       0 UNK        -0.5240 
      4 N         -80.1546   25.6688  -70.8028 N.am      1 UNK        -0.4739 
      5 CA        -81.2181   25.6475  -71.8251 C.3       1 UNK         0.0864 
      6 C6        -81.2993   26.9737  -72.6328 C.3       11 UNK        -0.0881 
      7 S7        -81.6427   28.4170  -71.5747 S.3       11 UNK        -0.2682 
      8 C8        -81.0961   29.7797  -72.6632 C.3       11 UNK         0.0289 
      9 C9        -79.5844   30.0079  -72.7679 C.ar      11 UNK        -0.0687 
     10 C10       -79.1251   30.9434  -73.7021 C.ar      11 UNK        -0.0823 
     11 C11       -77.7620   31.2342  -73.8215 C.ar      11 UNK        -0.0830 
     12 C12       -76.8483   30.5793  -72.9947 C.ar      11 UNK        -0.1021 
     13 C13       -77.2851   29.6340  -72.0646 C.ar      11 UNK        -0.0753 
     14 C14       -78.6499   29.3536  -71.9521 C.ar      11 UNK        -0.0933 
     15 C15       -76.2720   28.9382  -71.1730 C.3       11 UNK         0.0166 
     16 S16       -75.3405   27.6828  -72.1009 S.3       11 UNK        -0.2615 
     17 C17       -73.8851   27.4853  -71.0188 C.3       11 UNK        -0.0865 
     18 CA        -72.8068   28.5828  -71.2476 C.3       10 UNK         0.0862 
     19 C         -71.6195   28.4407  -70.2523 C.2       10 UNK         0.5551 
     20 N         -70.3694   28.5294  -70.6916 N.am      10 UNK        -0.7319 
     21 O         -71.8335   28.2629  -69.0557 O.2       10 UNK        -0.5018 
     22 N         -72.3800   28.6428  -72.6561 N.am      10 UNK        -0.4509 
     23 C         -72.5375   29.6873  -73.4799 C.2       10 UNK         0.4899 
     24 O         -73.0343   30.7622  -73.1424 O.2       10 UNK        -0.4839 
     25 CA        -72.0422   29.5207  -74.9305 C.3       9 UNK         0.0222 
     26 CB        -70.8068   30.4017  -75.1820 C.3       9 UNK        -0.1966 
     27 N         -71.7174   28.1323  -75.2785 N.am      9 UNK        -0.4218 
     28 C         -72.6235   27.2022  -75.6023 C.2       9 UNK         0.5020 
     29 O         -73.8351   27.4130  -75.6982 O.2       9 UNK        -0.5274 
     30 CA        -72.0898   25.7853  -75.8267 C.3       8 UNK         0.0270 
     31 CB        -71.9468   25.0343  -74.4889 C.3       8 UNK        -0.1976 
     32 N         -73.0407   25.1006  -76.6896 N.am      8 UNK        -0.4313 
     33 C         -72.8053   24.0255  -77.4467 C.2       8 UNK         0.5041 
     34 O         -71.7299   23.4253  -77.4741 O.2       8 UNK        -0.5577 
     35 CA        -73.9670   23.5368  -78.3286 C.3       7 UNK         0.0284 
     36 CB        -74.6972   22.3672  -77.6516 C.3       7 UNK        -0.1958 
     37 N         -74.9268   24.6027  -78.6410 N.am      7 UNK        -0.4454 
     38 C         -74.7063   25.5509  -79.5636 C.2       7 UNK         0.5089 
     39 O         -73.6821   25.6188  -80.2440 O.2       7 UNK        -0.5125 
     40 CA        -75.8030   26.6023  -79.7595 C.3       6 UNK         0.0408 
     41 CB        -77.0110   25.9945  -80.4920 C.3       6 UNK        -0.1791 
     42 N         -76.2476   27.1523  -78.4801 N.am      6 UNK        -0.4762 
     43 C         -76.0178   28.4025  -78.0496 C.2       6 UNK         0.5007 
     44 O         -75.2935   29.1955  -78.6542 O.2       6 UNK        -0.5032 
     45 CA        -76.7302   28.8642  -76.7496 C.3       5 UNK         0.0783 
     46 C46       -77.3013   30.3108  -76.8745 C.3       11 UNK        -0.0857 
     47 S47       -76.2013   31.5521  -76.1156 S.3       11 UNK        -0.2512 
     48 C48       -77.2768   32.2694  -74.8290 C.3       11 UNK         0.0225 
     49 N         -77.7245   27.8964  -76.2633 N.am      5 UNK        -0.4615 
     50 C         -78.8898   27.5860  -76.8495 C.2       4 UNK         0.5053 
     51 O         -79.3308   28.1726  -77.8385 O.2       4 UNK        -0.5105 
     52 CA        -79.6812   26.4045  -76.2539 C.3       4 UNK         0.0263 
     53 CB        -80.4947   25.6521  -77.3278 C.3       4 UNK        -0.1981 
     54 N         -78.8741   25.4490  -75.4815 N.am      4 UNK        -0.4224 
     55 C         -77.8253   24.7218  -75.9005 C.2       3 UNK         0.4895 
     56 O         -77.2887   24.8497  -77.0033 O.2       3 UNK        -0.5091 
     57 CA        -77.2690   23.6793  -74.9176 C.3       3 UNK         0.0250 
     58 CB        -76.0135   24.2215  -74.2143 C.3       3 UNK        -0.1996 
     59 N         -78.2632   23.2733  -73.9192 N.am      3 UNK        -0.4254 
     60 C         -79.1835   22.3165  -74.1223 C.2       2 UNK         0.5004 
     61 O         -79.2256   21.6155  -75.1339 O.2       2 UNK        -0.5226 
     62 CA        -80.2469   22.1011  -73.0272 C.3       2 UNK         0.0269 
     63 CB        -79.8079   20.9862  -72.0642 C.3       2 UNK        -0.1926 
     64 N         -80.5510   23.3102  -72.2572 N.am      2 UNK        -0.4687 
     65 C         -81.1438   24.4076  -72.7520 C.2       1 UNK         0.5165 
     66 O         -81.5871   24.4684  -73.8994 O.2       1 UNK        -0.5079 
     67 H67       -76.8809   25.8667  -70.1372 H         1 UNK         0.0900 
     68 H68       -78.1814   26.6009  -69.1962 H         1 UNK         0.0900 
     69 H69       -77.9944   24.8406  -69.2327 H         1 UNK         0.0900 
     70 H70       -80.4820   25.7227  -69.8478 H         1 UNK         0.2959 
     71 H71       -82.1589   25.5359  -71.2835 H         1 UNK         0.1079 
     72 H72       -80.3689   27.1447  -73.1761 H         1 UNK         0.0837 
     73 H73       -82.0921   26.9306  -73.3820 H         1 UNK         0.0837 
     74 H74       -81.5076   29.6144  -73.6603 H         1 UNK         0.0685 
     75 H75       -81.5500   30.7003  -72.2939 H         1 UNK         0.0685 
     76 H76       -79.8375   31.4573  -74.3334 H         1 UNK         0.1434 
     77 H77       -75.7920   30.7973  -73.0820 H         1 UNK         0.1329 
     78 H78       -78.9732   28.6314  -71.2178 H         1 UNK         0.1335 
     79 H79       -75.5893   29.6862  -70.7688 H         1 UNK         0.0680 
     80 H80       -76.7590   28.4704  -70.3169 H         1 UNK         0.0680 
     81 H81       -74.2232   27.4803  -69.9807 H         1 UNK         0.1032 
     82 H82       -73.4616   26.4963  -71.2017 H         1 UNK         0.1032 
     83 H83       -73.2592   29.5375  -70.9771 H         1 UNK         0.0461 
     84 H84       -69.6090   28.4419  -70.0356 H         1 UNK         0.3453 
     85 H85       -70.1788   28.7127  -71.6632 H         1 UNK         0.3453 
     86 H86       -71.9572   27.8038  -73.0209 H         1 UNK         0.2984 
     87 H87       -72.8440   29.8671  -75.5869 H         1 UNK         0.0554 
     88 H88       -71.0253   31.4497  -74.9714 H         1 UNK         0.0847 
     89 H89       -70.4834   30.3451  -76.2215 H         1 UNK         0.0847 
     90 H90       -69.9658   30.1122  -74.5507 H         1 UNK         0.0847 
     91 H91       -70.7422   27.8705  -75.2362 H         1 UNK         0.3141 
     92 H92       -71.1233   25.8415  -76.3321 H         1 UNK         0.0743 
     93 H93       -71.2167   25.5198  -73.8406 H         1 UNK         0.0784 
     94 H94       -72.8925   24.9953  -73.9461 H         1 UNK         0.0784 
     95 H95       -71.6079   24.0095  -74.6414 H         1 UNK         0.0784 
     96 H96       -73.9346   25.5732  -76.7575 H         1 UNK         0.3213 
     97 H97       -73.5408   23.1703  -79.2653 H         1 UNK         0.0855 
     98 H98       -75.0427   22.6356  -76.6552 H         1 UNK         0.0814 
     99 H99       -74.0321   21.5099  -77.5402 H         1 UNK         0.0814 
    100 H100      -75.5578   22.0379  -78.2341 H         1 UNK         0.0814 
    101 H101      -75.7979   24.6168  -78.1143 H         1 UNK         0.3105 
    102 H102      -75.3958   27.3927  -80.3933 H         1 UNK         0.0547 
    103 H103      -77.7686   26.7515  -80.6957 H         1 UNK         0.0837 
    104 H104      -76.7131   25.5676  -81.4506 H         1 UNK         0.0837 
    105 H105      -77.4837   25.2006  -79.9122 H         1 UNK         0.0837 
    106 H106      -76.8125   26.5386  -77.9008 H         1 UNK         0.3020 
    107 H107      -75.9554   28.8627  -75.9812 H         1 UNK         0.1245 
    108 H108      -78.2795   30.3810  -76.3990 H         1 UNK         0.0781 
    109 H109      -77.4847   30.5919  -77.9135 H         1 UNK         0.0781 
    110 H110      -78.1183   32.7699  -75.3104 H         1 UNK         0.0836 
    111 H111      -76.7224   33.0462  -74.3005 H         1 UNK         0.0836 
    112 H112      -77.4481   27.3655  -75.4492 H         1 UNK         0.3022 
    113 H113      -80.3917   26.8434  -75.5533 H         1 UNK         0.0747 
    114 H114      -81.2084   26.3143  -77.8194 H         1 UNK         0.0793 
    115 H115      -79.8504   25.2337  -78.1020 H         1 UNK         0.0793 
    116 H116      -81.0663   24.8344  -76.8880 H         1 UNK         0.0793 
    117 H117      -79.1897   25.2839  -74.5351 H         1 UNK         0.3047 
    118 H118      -76.9824   22.8026  -75.5001 H         1 UNK         0.0822 
    119 H119      -75.2477   24.4980  -74.9389 H         1 UNK         0.0807 
    120 H120      -75.5768   23.4762  -73.5498 H         1 UNK         0.0807 
    121 H121      -76.2295   25.1117  -73.6232 H         1 UNK         0.0807 
    122 H122      -78.3127   23.8444  -73.0802 H         1 UNK         0.2946 
    123 H123      -81.1643   21.7822  -73.5277 H         1 UNK         0.1144 
    124 H124      -80.5863   20.7621  -71.3345 H         1 UNK         0.0793 
    125 H125      -78.9023   21.2559  -71.5194 H         1 UNK         0.0793 
    126 H126      -79.5993   20.0626  -72.6062 H         1 UNK         0.0793 
    127 H127      -80.2131   23.3439  -71.3061 H         1 UNK         0.2896 
@<TRIPOS>BOND
     1    1    2 1    
     2    1   67 1    
     3    1   68 1    
     4    1   69 1    
     5    2    3 2    
     6    2    4 am   BACKBONE|DICT|INTERRES
     7    4    5 1    
     8    4   70 1    
     9    5    6 1    
    10    5   65 1    
    11    5   71 1    
    12    6    7 1    
    13    6   72 1    
    14    6   73 1    
    15    7    8 1    
    16    8    9 1    
    17    8   74 1    
    18    8   75 1    
    19    9   10 ar   
    20    9   14 ar   
    21   10   11 ar   
    22   10   76 1    
    23   11   12 ar   
    24   11   48 1    
    25   12   13 ar   
    26   12   77 1    
    27   13   14 ar   
    28   13   15 1    
    29   14   78 1    
    30   15   16 1    
    31   15   79 1    
    32   15   80 1    
    33   16   17 1    
    34   17   18 1    
    35   17   81 1    
    36   17   82 1    
    37   18   19 1    
    38   18   22 1    
    39   18   83 1    
    40   19   20 am   BACKBONE|DICT|INTERRES
    41   19   21 2    
    42   20   84 1    
    43   20   85 1    
    44   22   23 am   BACKBONE|DICT|INTERRES
    45   22   86 1    
    46   23   24 2    
    47   23   25 1    
    48   25   26 1    
    49   25   27 1    
    50   25   87 1    
    51   26   88 1    
    52   26   89 1    
    53   26   90 1    
    54   27   28 am   BACKBONE|DICT|INTERRES
    55   27   91 1    
    56   28   29 2    
    57   28   30 1    
    58   30   31 1    
    59   30   32 1    
    60   30   92 1    
    61   31   93 1    
    62   31   94 1    
    63   31   95 1    
    64   32   33 am   BACKBONE|DICT|INTERRES
    65   32   96 1    
    66   33   34 2    
    67   33   35 1    
    68   35   36 1    
    69   35   37 1    
    70   35   97 1    
    71   36   98 1    
    72   36   99 1    
    73   36  100 1    
    74   37   38 am   BACKBONE|DICT|INTERRES
    75   37  101 1    
    76   38   39 2    
    77   38   40 1    
    78   40   41 1    
    79   40   42 1    
    80   40  102 1    
    81   41  103 1    
    82   41  104 1    
    83   41  105 1    
    84   42   43 am   BACKBONE|DICT|INTERRES
    85   42  106 1    
    86   43   44 2    
    87   43   45 1    
    88   45   46 1    
    89   45   49 1    
    90   45  107 1    
    91   46   47 1    
    92   46  108 1    
    93   46  109 1    
    94   47   48 1    
    95   48  110 1    
    96   48  111 1    
    97   49   50 am   BACKBONE|DICT|INTERRES
    98   49  112 1    
    99   50   51 2    
   100   50   52 1    
   101   52   53 1    
   102   52   54 1    
   103   52  113 1    
   104   53  114 1    
   105   53  115 1    
   106   53  116 1    
   107   54   55 am   BACKBONE|DICT|INTERRES
   108   54  117 1    
   109   55   56 2    
   110   55   57 1    
   111   57   58 1    
   112   57   59 1    
   113   57  118 1    
   114   58  119 1    
   115   58  120 1    
   116   58  121 1    
   117   59   60 am   BACKBONE|DICT|INTERRES
   118   59  122 1    
   119   60   61 2    
   120   60   62 1    
   121   62   63 1    
   122   62   64 1    
   123   62  123 1    
   124   63  124 1    
   125   63  125 1    
   126   63  126 1    
   127   64   65 am   BACKBONE|DICT|INTERRES
   128   64  127 1    
   129   65   66 2    
@<TRIPOS>SUBSTRUCTURE
     1 UNK         1 GROUP             0       ****    0 ROOT    
