@<TRIPOS>MOLECULE
3R135
127   129    1
SMALL
USER_CHARGES


@<TRIPOS>ATOM
      1 CA        -83.6346   26.2122  -74.7746 C.3       0 UNK        -0.1998 
      2 C         -82.3980   27.0031  -75.1721 C.2       0 UNK         0.4909 
      3 O         -82.1720   27.2287  -76.3618 O.2       0 UNK        -0.5240 
      4 N         -81.5932   27.4233  -74.1866 N.am      1 UNK        -0.4739 
      5 CA        -80.3191   28.1291  -74.3758 C.3       1 UNK         0.0864 
      6 C6        -79.6639   28.5360  -73.0330 C.3       11 UNK        -0.0881 
      7 S7        -80.7830   29.3451  -71.8366 S.3       11 UNK        -0.2682 
      8 C8        -79.6193   30.1199  -70.6517 C.3       11 UNK         0.0289 
      9 C9        -78.3750   29.2870  -70.3425 C.ar      11 UNK        -0.0687 
     10 C10       -78.4688   27.9205  -70.0567 C.ar      11 UNK        -0.0823 
     11 C11       -77.3170   27.1452  -69.8898 C.ar      11 UNK        -0.0830 
     12 C12       -76.0638   27.7636  -69.9115 C.ar      11 UNK        -0.1021 
     13 C13       -75.9581   29.1396  -70.1350 C.ar      11 UNK        -0.0753 
     14 C14       -77.1142   29.8913  -70.3662 C.ar      11 UNK        -0.0933 
     15 C15       -74.5969   29.8167  -70.1275 C.3       11 UNK         0.0166 
     16 S16       -73.6498   29.4225  -71.6268 S.3       11 UNK        -0.2615 
     17 C17       -72.3146   30.6636  -71.5241 C.3       11 UNK        -0.0865 
     18 CA        -72.4790   31.7779  -72.5909 C.3       10 UNK         0.0862 
     19 C         -71.4707   32.9403  -72.3532 C.2       10 UNK         0.5551 
     20 N         -70.5828   33.2566  -73.2881 N.am      10 UNK        -0.7319 
     21 O         -71.5013   33.5721  -71.2999 O.2       10 UNK        -0.5018 
     22 N         -72.4553   31.2141  -73.9504 N.am      10 UNK        -0.4509 
     23 C         -73.0194   31.7638  -75.0327 C.2       10 UNK         0.4899 
     24 O         -73.6311   32.8323  -75.0194 O.2       10 UNK        -0.4839 
     25 CA        -72.8681   31.0024  -76.3636 C.3       9 UNK         0.0222 
     26 CB        -71.8506   31.7114  -77.2731 C.3       9 UNK        -0.1966 
     27 N         -72.4581   29.6046  -76.1856 N.am      9 UNK        -0.4218 
     28 C         -73.2864   28.6060  -75.8531 C.2       9 UNK         0.5020 
     29 O         -74.5021   28.7377  -75.6970 O.2       9 UNK        -0.5274 
     30 CA        -72.6374   27.2300  -75.6342 C.3       8 UNK         0.0270 
     31 CB        -72.6107   26.8712  -74.1401 C.3       8 UNK        -0.1976 
     32 N         -73.3492   26.1901  -76.3768 N.am      8 UNK        -0.4313 
     33 C         -73.2957   26.0566  -77.7106 C.2       8 UNK         0.5041 
     34 O         -72.6069   26.7830  -78.4305 O.2       8 UNK        -0.5577 
     35 CA        -74.1481   24.9495  -78.3648 C.3       7 UNK         0.0284 
     36 CB        -73.4842   24.3553  -79.6265 C.3       7 UNK        -0.1958 
     37 N         -74.5780   23.8892  -77.4428 N.am      7 UNK        -0.4454 
     38 C         -73.7915   23.0158  -76.7975 C.2       7 UNK         0.5089 
     39 O         -72.5648   22.9898  -76.9139 O.2       7 UNK        -0.5125 
     40 CA        -74.4885   22.0015  -75.8648 C.3       6 UNK         0.0408 
     41 CB        -73.4928   21.3177  -74.9045 C.3       6 UNK        -0.1791 
     42 N         -75.6270   22.5166  -75.0901 N.am      6 UNK        -0.4762 
     43 C         -75.6765   23.6101  -74.3135 C.2       6 UNK         0.5007 
     44 O         -74.8239   24.4987  -74.3237 O.2       6 UNK        -0.5032 
     45 CA        -76.8835   23.6964  -73.3558 C.3       5 UNK         0.0783 
     46 C46       -76.8507   24.9317  -72.4151 C.3       11 UNK        -0.0857 
     47 S47       -78.1810   24.8355  -71.1628 S.3       11 UNK        -0.2512 
     48 C48       -77.4334   25.6389  -69.7054 C.3       11 UNK         0.0225 
     49 N         -78.1443   23.6209  -74.0960 N.am      5 UNK        -0.4615 
     50 C         -78.7870   22.5004  -74.4408 C.2       4 UNK         0.5053 
     51 O         -78.3164   21.3729  -74.2879 O.2       4 UNK        -0.5105 
     52 CA        -80.1778   22.6693  -75.0664 C.3       4 UNK         0.0263 
     53 CB        -81.1936   23.1454  -74.0131 C.3       4 UNK        -0.1981 
     54 N         -80.1330   23.6332  -76.1642 N.am      4 UNK        -0.4224 
     55 C         -80.1377   23.3126  -77.4651 C.2       3 UNK         0.4895 
     56 O         -80.2466   22.1605  -77.8870 O.2       3 UNK        -0.5091 
     57 CA        -80.0029   24.4631  -78.4822 C.3       3 UNK         0.0250 
     58 CB        -81.3807   24.8407  -79.0499 C.3       3 UNK        -0.1996 
     59 N         -79.3593   25.6651  -77.9444 N.am      3 UNK        -0.4254 
     60 C         -78.0789   25.7312  -77.5516 C.2       2 UNK         0.5004 
     61 O         -77.2966   24.7842  -77.6192 O.2       2 UNK        -0.5226 
     62 CA        -77.6055   27.0574  -76.9249 C.3       2 UNK         0.0269 
     63 CB        -77.0508   27.9957  -78.0088 C.3       2 UNK        -0.1926 
     64 N         -78.6332   27.7675  -76.1485 N.am      2 UNK        -0.4687 
     65 C         -79.3301   27.2287  -75.1390 C.2       1 UNK         0.5165 
     66 O         -79.2138   26.0540  -74.7848 O.2       1 UNK        -0.5079 
     67 H67       -84.5349   26.7556  -75.0598 H         1 UNK         0.0900 
     68 H68       -83.6415   25.2489  -75.2839 H         1 UNK         0.0900 
     69 H69       -83.6726   26.0281  -73.7011 H         1 UNK         0.0900 
     70 H70       -81.8265   27.2153  -73.2264 H         1 UNK         0.2959 
     71 H71       -80.5191   29.0275  -74.9632 H         1 UNK         0.1079 
     72 H72       -78.8135   29.1959  -73.2172 H         1 UNK         0.0837 
     73 H73       -79.2592   27.6484  -72.5437 H         1 UNK         0.0837 
     74 H74       -80.1491   30.3225  -69.7203 H         1 UNK         0.0685 
     75 H75       -79.3309   31.0909  -71.0573 H         1 UNK         0.0685 
     76 H76       -79.4393   27.4434  -70.0342 H         1 UNK         0.1434 
     77 H77       -75.1667   27.1770  -69.7662 H         1 UNK         0.1329 
     78 H78       -77.0304   30.9503  -70.5692 H         1 UNK         0.1335 
     79 H79       -74.0326   29.4999  -69.2491 H         1 UNK         0.0680 
     80 H80       -74.7141   30.8989  -70.0483 H         1 UNK         0.0680 
     81 H81       -71.3573   30.1543  -71.6490 H         1 UNK         0.1032 
     82 H82       -72.2952   31.0875  -70.5181 H         1 UNK         0.1032 
     83 H83       -73.4659   32.2209  -72.4414 H         1 UNK         0.0461 
     84 H84       -70.5549   32.7484  -74.1569 H         1 UNK         0.3453 
     85 H85       -69.9386   34.0140  -73.1231 H         1 UNK         0.3453 
     86 H86       -71.9799   30.3314  -74.0537 H         1 UNK         0.2984 
     87 H87       -73.8391   31.0217  -76.8633 H         1 UNK         0.0554 
     88 H88       -72.1415   32.7477  -77.4516 H         1 UNK         0.0847 
     89 H89       -71.7831   31.2255  -78.2468 H         1 UNK         0.0847 
     90 H90       -70.8523   31.7251  -76.8342 H         1 UNK         0.0847 
     91 H91       -71.4776   29.3993  -76.3181 H         1 UNK         0.3141 
     92 H92       -71.6060   27.2546  -75.9930 H         1 UNK         0.0743 
     93 H93       -72.0093   27.5857  -73.5772 H         1 UNK         0.0784 
     94 H94       -72.1812   25.8829  -73.9748 H         1 UNK         0.0784 
     95 H95       -73.6120   26.8768  -73.7064 H         1 UNK         0.0784 
     96 H96       -73.9398   25.5672  -75.8337 H         1 UNK         0.3213 
     97 H97       -75.0584   25.4463  -78.6971 H         1 UNK         0.0855 
     98 H98       -72.5119   23.9144  -79.4058 H         1 UNK         0.0814 
     99 H99       -73.3245   25.1242  -80.3834 H         1 UNK         0.0814 
    100 H100      -74.1090   23.5852  -80.0786 H         1 UNK         0.0814 
    101 H101      -75.5802   23.8666  -77.2692 H         1 UNK         0.3105 
    102 H102      -74.8957   21.2297  -76.5193 H         1 UNK         0.0547 
    103 H103      -73.9858   20.5661  -74.2881 H         1 UNK         0.0837 
    104 H104      -73.0188   22.0399  -74.2386 H         1 UNK         0.0837 
    105 H105      -72.6990   20.8092  -75.4533 H         1 UNK         0.0837 
    106 H106      -76.4266   21.8939  -75.0308 H         1 UNK         0.3020 
    107 H107      -76.8079   22.8145  -72.7149 H         1 UNK         0.1245 
    108 H108      -76.9627   25.8585  -72.9811 H         1 UNK         0.0781 
    109 H109      -75.8896   24.9970  -71.9018 H         1 UNK         0.0781 
    110 H110      -76.4622   25.1873  -69.4972 H         1 UNK         0.0836 
    111 H111      -78.0578   25.4375  -68.8340 H         1 UNK         0.0836 
    112 H112      -78.5834   24.5198  -74.2923 H         1 UNK         0.3022 
    113 H113      -80.5031   21.6915  -75.4279 H         1 UNK         0.0747 
    114 H114      -82.1982   23.2002  -74.4322 H         1 UNK         0.0793 
    115 H115      -81.2319   22.4561  -73.1686 H         1 UNK         0.0793 
    116 H116      -80.9427   24.1311  -73.6182 H         1 UNK         0.0793 
    117 H117      -79.9787   24.6017  -75.9033 H         1 UNK         0.3047 
    118 H118      -79.3837   24.0958  -79.3035 H         1 UNK         0.0822 
    119 H119      -81.2964   25.5996  -79.8279 H         1 UNK         0.0807 
    120 H120      -82.0444   25.2256  -78.2747 H         1 UNK         0.0807 
    121 H121      -81.8701   23.9740  -79.4965 H         1 UNK         0.0807 
    122 H122      -79.9458   26.4785  -77.8152 H         1 UNK         0.2946 
    123 H123      -76.7921   26.8127  -76.2369 H         1 UNK         0.1144 
    124 H124      -76.6101   28.8907  -77.5690 H         1 UNK         0.0793 
    125 H125      -77.8268   28.3102  -78.7077 H         1 UNK         0.0793 
    126 H126      -76.2671   27.5086  -78.5892 H         1 UNK         0.0793 
    127 H127      -78.7838   28.7379  -76.3849 H         1 UNK         0.2896 
@<TRIPOS>BOND
     1    1    2 1    
     2    1   67 1    
     3    1   68 1    
     4    1   69 1    
     5    2    3 2    
     6    2    4 am   BACKBONE|DICT|INTERRES
     7    4    5 1    
     8    4   70 1    
     9    5    6 1    
    10    5   65 1    
    11    5   71 1    
    12    6    7 1    
    13    6   72 1    
    14    6   73 1    
    15    7    8 1    
    16    8    9 1    
    17    8   74 1    
    18    8   75 1    
    19    9   10 ar   
    20    9   14 ar   
    21   10   11 ar   
    22   10   76 1    
    23   11   12 ar   
    24   11   48 1    
    25   12   13 ar   
    26   12   77 1    
    27   13   14 ar   
    28   13   15 1    
    29   14   78 1    
    30   15   16 1    
    31   15   79 1    
    32   15   80 1    
    33   16   17 1    
    34   17   18 1    
    35   17   81 1    
    36   17   82 1    
    37   18   19 1    
    38   18   22 1    
    39   18   83 1    
    40   19   20 am   BACKBONE|DICT|INTERRES
    41   19   21 2    
    42   20   84 1    
    43   20   85 1    
    44   22   23 am   BACKBONE|DICT|INTERRES
    45   22   86 1    
    46   23   24 2    
    47   23   25 1    
    48   25   26 1    
    49   25   27 1    
    50   25   87 1    
    51   26   88 1    
    52   26   89 1    
    53   26   90 1    
    54   27   28 am   BACKBONE|DICT|INTERRES
    55   27   91 1    
    56   28   29 2    
    57   28   30 1    
    58   30   31 1    
    59   30   32 1    
    60   30   92 1    
    61   31   93 1    
    62   31   94 1    
    63   31   95 1    
    64   32   33 am   BACKBONE|DICT|INTERRES
    65   32   96 1    
    66   33   34 2    
    67   33   35 1    
    68   35   36 1    
    69   35   37 1    
    70   35   97 1    
    71   36   98 1    
    72   36   99 1    
    73   36  100 1    
    74   37   38 am   BACKBONE|DICT|INTERRES
    75   37  101 1    
    76   38   39 2    
    77   38   40 1    
    78   40   41 1    
    79   40   42 1    
    80   40  102 1    
    81   41  103 1    
    82   41  104 1    
    83   41  105 1    
    84   42   43 am   BACKBONE|DICT|INTERRES
    85   42  106 1    
    86   43   44 2    
    87   43   45 1    
    88   45   46 1    
    89   45   49 1    
    90   45  107 1    
    91   46   47 1    
    92   46  108 1    
    93   46  109 1    
    94   47   48 1    
    95   48  110 1    
    96   48  111 1    
    97   49   50 am   BACKBONE|DICT|INTERRES
    98   49  112 1    
    99   50   51 2    
   100   50   52 1    
   101   52   53 1    
   102   52   54 1    
   103   52  113 1    
   104   53  114 1    
   105   53  115 1    
   106   53  116 1    
   107   54   55 am   BACKBONE|DICT|INTERRES
   108   54  117 1    
   109   55   56 2    
   110   55   57 1    
   111   57   58 1    
   112   57   59 1    
   113   57  118 1    
   114   58  119 1    
   115   58  120 1    
   116   58  121 1    
   117   59   60 am   BACKBONE|DICT|INTERRES
   118   59  122 1    
   119   60   61 2    
   120   60   62 1    
   121   62   63 1    
   122   62   64 1    
   123   62  123 1    
   124   63  124 1    
   125   63  125 1    
   126   63  126 1    
   127   64   65 am   BACKBONE|DICT|INTERRES
   128   64  127 1    
   129   65   66 2    
@<TRIPOS>SUBSTRUCTURE
     1 UNK         1 GROUP             0       ****    0 ROOT    
