@<TRIPOS>MOLECULE
3R135
127   129    1
SMALL
USER_CHARGES


@<TRIPOS>ATOM
      1 CA        -83.9207   23.0274  -71.4047 C.3       0 UNK        -0.1998 
      2 C         -83.7063   24.3112  -72.1923 C.2       0 UNK         0.4909 
      3 O         -84.5902   24.7239  -72.9447 O.2       0 UNK        -0.5240 
      4 N         -82.5438   24.9504  -72.0162 N.am      1 UNK        -0.4739 
      5 CA        -82.1184   26.1469  -72.7488 C.3       1 UNK         0.0864 
      6 C6        -80.9645   26.8989  -72.0311 C.3       11 UNK        -0.0881 
      7 S7        -79.6474   25.8327  -71.3396 S.3       11 UNK        -0.2682 
      8 C8        -78.9742   26.8496  -69.9850 C.3       11 UNK         0.0289 
      9 C9        -77.9188   27.8300  -70.4788 C.ar      11 UNK        -0.0687 
     10 C10       -78.2964   28.9262  -71.2558 C.ar      11 UNK        -0.0823 
     11 C11       -77.3390   29.8152  -71.7424 C.ar      11 UNK        -0.0830 
     12 C12       -76.0041   29.6618  -71.3650 C.ar      11 UNK        -0.1021 
     13 C13       -75.6017   28.5649  -70.5975 C.ar      11 UNK        -0.0753 
     14 C14       -76.5666   27.6460  -70.1649 C.ar      11 UNK        -0.0933 
     15 C15       -74.1342   28.3777  -70.2221 C.3       11 UNK         0.0166 
     16 S16       -73.0541   28.0711  -71.6662 S.3       11 UNK        -0.2615 
     17 C17       -72.6047   29.7652  -72.1891 C.3       11 UNK        -0.0865 
     18 CA        -73.2194   30.1432  -73.5700 C.3       10 UNK         0.0862 
     19 C         -73.3770   31.6815  -73.7855 C.2       10 UNK         0.5551 
     20 N         -73.3386   32.1830  -75.0144 N.am      10 UNK        -0.7319 
     21 O         -73.5731   32.4321  -72.8329 O.2       10 UNK        -0.5018 
     22 N         -72.5998   29.4217  -74.6943 N.am      10 UNK        -0.4509 
     23 C         -71.3596   29.5959  -75.1659 C.2       10 UNK         0.4899 
     24 O         -70.5274   30.3480  -74.6545 O.2       10 UNK        -0.4839 
     25 CA        -71.0123   28.8124  -76.4463 C.3       9 UNK         0.0222 
     26 CB        -69.7149   29.3115  -77.1178 C.3       9 UNK        -0.1966 
     27 N         -70.9559   27.3614  -76.2392 N.am      9 UNK        -0.4218 
     28 C         -70.1779   26.6826  -75.3785 C.2       9 UNK         0.5020 
     29 O         -69.3906   27.2185  -74.5969 O.2       9 UNK        -0.5274 
     30 CA        -70.2242   25.1385  -75.4307 C.3       8 UNK         0.0270 
     31 CB        -70.2192   24.5045  -74.0220 C.3       8 UNK        -0.1976 
     32 N         -71.2975   24.5820  -76.2684 N.am      8 UNK        -0.4313 
     33 C         -72.6168   24.6485  -76.0461 C.2       8 UNK         0.5041 
     34 O         -73.1284   25.1520  -75.0462 O.2       8 UNK        -0.5577 
     35 CA        -73.5192   24.0730  -77.1498 C.3       7 UNK         0.0284 
     36 CB        -74.1558   22.7499  -76.6955 C.3       7 UNK        -0.1958 
     37 N         -74.5701   25.0227  -77.5195 N.am      7 UNK        -0.4454 
     38 C         -74.3535   26.2326  -78.0543 C.2       7 UNK         0.5089 
     39 O         -73.2378   26.6514  -78.3708 O.2       7 UNK        -0.5125 
     40 CA        -75.5844   27.1396  -78.2372 C.3       6 UNK         0.0408 
     41 CB        -76.4254   26.6962  -79.4445 C.3       6 UNK        -0.1791 
     42 N         -76.4258   27.2086  -77.0376 N.am      6 UNK        -0.4762 
     43 C         -76.0208   27.7171  -75.8616 C.2       6 UNK         0.5007 
     44 O         -74.9022   28.1972  -75.6876 O.2       6 UNK        -0.5032 
     45 CA        -77.0249   27.6761  -74.6902 C.3       5 UNK         0.0783 
     46 C46       -78.0180   28.8710  -74.7398 C.3       11 UNK        -0.0857 
     47 S47       -77.2233   30.4923  -74.4215 S.3       11 UNK        -0.2512 
     48 C48       -77.7423   30.9053  -72.7206 C.3       11 UNK         0.0225 
     49 N         -77.7081   26.3759  -74.6914 N.am      5 UNK        -0.4615 
     50 C         -77.1906   25.2629  -74.1444 C.2       4 UNK         0.5053 
     51 O         -76.2222   25.2714  -73.3863 O.2       4 UNK        -0.5105 
     52 CA        -77.8062   23.8982  -74.5237 C.3       4 UNK         0.0263 
     53 CB        -78.4961   23.2044  -73.3384 C.3       4 UNK        -0.1981 
     54 N         -78.7326   23.9630  -75.6546 N.am      4 UNK        -0.4224 
     55 C         -78.3428   23.9977  -76.9365 C.2       3 UNK         0.4895 
     56 O         -77.1677   23.9319  -77.2912 O.2       3 UNK        -0.5091 
     57 CA        -79.4300   24.1856  -78.0093 C.3       3 UNK         0.0250 
     58 CB        -79.8973   22.8226  -78.5429 C.3       3 UNK        -0.1996 
     59 N         -80.5910   24.9538  -77.5540 N.am      3 UNK        -0.4254 
     60 C         -80.5523   26.1981  -77.0576 C.2       2 UNK         0.5004 
     61 O         -79.5144   26.8519  -76.9420 O.2       2 UNK        -0.5226 
     62 CA        -81.8798   26.7980  -76.5596 C.3       2 UNK         0.0269 
     63 CB        -83.1324   26.1002  -77.1372 C.3       2 UNK        -0.1926 
     64 N         -81.9681   26.8457  -75.0926 N.am      2 UNK        -0.4687 
     65 C         -81.7947   25.8322  -74.2274 C.2       1 UNK         0.5165 
     66 O         -81.4109   24.7045  -74.5530 O.2       1 UNK        -0.5079 
     67 H67       -83.0656   22.7906  -70.7717 H         1 UNK         0.0900 
     68 H68       -84.0794   22.1922  -72.0863 H         1 UNK         0.0900 
     69 H69       -84.7995   23.1199  -70.7672 H         1 UNK         0.0900 
     70 H70       -81.8390   24.5565  -71.4086 H         1 UNK         0.2959 
     71 H71       -82.9773   26.8224  -72.7653 H         1 UNK         0.1079 
     72 H72       -80.5116   27.6292  -72.7017 H         1 UNK         0.0837 
     73 H73       -81.3911   27.4776  -71.2106 H         1 UNK         0.0837 
     74 H74       -79.7771   27.3878  -69.4796 H         1 UNK         0.0685 
     75 H75       -78.5436   26.1806  -69.2386 H         1 UNK         0.0685 
     76 H76       -79.3349   29.0745  -71.5087 H         1 UNK         0.1434 
     77 H77       -75.2773   30.3847  -71.6997 H         1 UNK         0.1329 
     78 H78       -76.2671   26.7926  -69.5722 H         1 UNK         0.1335 
     79 H79       -73.7843   29.2454  -69.6615 H         1 UNK         0.0680 
     80 H80       -74.0297   27.5282  -69.5455 H         1 UNK         0.0680 
     81 H81       -71.5175   29.8459  -72.2180 H         1 UNK         0.1032 
     82 H82       -72.9185   30.4593  -71.4090 H         1 UNK         0.1032 
     83 H83       -74.2482   29.7869  -73.5744 H         1 UNK         0.0461 
     84 H84       -73.4545   33.1750  -75.1475 H         1 UNK         0.3453 
     85 H85       -73.2070   31.5768  -75.8075 H         1 UNK         0.3453 
     86 H86       -73.2406   28.7991  -75.1837 H         1 UNK         0.2984 
     87 H87       -71.8289   28.9866  -77.1490 H         1 UNK         0.0554 
     88 H88       -69.5322   28.7955  -78.0604 H         1 UNK         0.0847 
     89 H89       -68.8428   29.1630  -76.4800 H         1 UNK         0.0847 
     90 H90       -69.7764   30.3777  -77.3392 H         1 UNK         0.0847 
     91 H91       -71.5941   26.8267  -76.8166 H         1 UNK         0.3141 
     92 H92       -69.2946   24.8400  -75.9179 H         1 UNK         0.0743 
     93 H93       -71.0720   24.8320  -73.4264 H         1 UNK         0.0784 
     94 H94       -70.2430   23.4161  -74.0747 H         1 UNK         0.0784 
     95 H95       -69.3190   24.7810  -73.4718 H         1 UNK         0.0784 
     96 H96       -70.9853   24.1535  -77.1301 H         1 UNK         0.3213 
     97 H97       -72.9212   23.8789  -78.0429 H         1 UNK         0.0855 
     98 H98       -74.7727   22.8880  -75.8068 H         1 UNK         0.0814 
     99 H99       -73.3913   22.0115  -76.4508 H         1 UNK         0.0814 
    100 H100      -74.7848   22.3217  -77.4762 H         1 UNK         0.0814 
    101 H101      -75.5270   24.7449  -77.3097 H         1 UNK         0.3105 
    102 H102      -75.2221   28.1501  -78.4378 H         1 UNK         0.0547 
    103 H103      -75.8318   26.7229  -80.3592 H         1 UNK         0.0837 
    104 H104      -76.7960   25.6780  -79.3310 H         1 UNK         0.0837 
    105 H105      -77.2831   27.3518  -79.5956 H         1 UNK         0.0837 
    106 H106      -77.3775   26.8698  -77.1170 H         1 UNK         0.3020 
    107 H107      -76.4489   27.7633  -73.7648 H         1 UNK         0.1245 
    108 H108      -78.8185   28.7214  -74.0166 H         1 UNK         0.0781 
    109 H109      -78.5118   28.9252  -75.7109 H         1 UNK         0.0781 
    110 H110      -78.8209   31.0696  -72.7027 H         1 UNK         0.0836 
    111 H111      -77.2820   31.8498  -72.4268 H         1 UNK         0.0836 
    112 H112      -78.4954   26.2952  -75.3247 H         1 UNK         0.3022 
    113 H113      -76.9638   23.2638  -74.8066 H         1 UNK         0.0747 
    114 H114      -78.6611   22.1477  -73.5482 H         1 UNK         0.0793 
    115 H115      -77.8896   23.2637  -72.4335 H         1 UNK         0.0793 
    116 H116      -79.4652   23.6466  -73.1165 H         1 UNK         0.0793 
    117 H117      -79.7189   24.0662  -75.4302 H         1 UNK         0.3047 
    118 H118      -78.9801   24.7393  -78.8353 H         1 UNK         0.0822 
    119 H119      -80.5951   22.9378  -79.3725 H         1 UNK         0.0807 
    120 H120      -80.3887   22.2326  -77.7681 H         1 UNK         0.0807 
    121 H121      -79.0529   22.2380  -78.9115 H         1 UNK         0.0807 
    122 H122      -81.4830   24.4809  -77.5746 H         1 UNK         0.2946 
    123 H123      -81.8869   27.8313  -76.9112 H         1 UNK         0.1144 
    124 H124      -84.0374   26.6468  -76.8715 H         1 UNK         0.0793 
    125 H125      -83.2492   25.0812  -76.7660 H         1 UNK         0.0793 
    126 H126      -83.0969   26.0587  -78.2269 H         1 UNK         0.0793 
    127 H127      -82.2406   27.7436  -74.7171 H         1 UNK         0.2896 
@<TRIPOS>BOND
     1    1    2 1    
     2    1   67 1    
     3    1   68 1    
     4    1   69 1    
     5    2    3 2    
     6    2    4 am   BACKBONE|DICT|INTERRES
     7    4    5 1    
     8    4   70 1    
     9    5    6 1    
    10    5   65 1    
    11    5   71 1    
    12    6    7 1    
    13    6   72 1    
    14    6   73 1    
    15    7    8 1    
    16    8    9 1    
    17    8   74 1    
    18    8   75 1    
    19    9   10 ar   
    20    9   14 ar   
    21   10   11 ar   
    22   10   76 1    
    23   11   12 ar   
    24   11   48 1    
    25   12   13 ar   
    26   12   77 1    
    27   13   14 ar   
    28   13   15 1    
    29   14   78 1    
    30   15   16 1    
    31   15   79 1    
    32   15   80 1    
    33   16   17 1    
    34   17   18 1    
    35   17   81 1    
    36   17   82 1    
    37   18   19 1    
    38   18   22 1    
    39   18   83 1    
    40   19   20 am   BACKBONE|DICT|INTERRES
    41   19   21 2    
    42   20   84 1    
    43   20   85 1    
    44   22   23 am   BACKBONE|DICT|INTERRES
    45   22   86 1    
    46   23   24 2    
    47   23   25 1    
    48   25   26 1    
    49   25   27 1    
    50   25   87 1    
    51   26   88 1    
    52   26   89 1    
    53   26   90 1    
    54   27   28 am   BACKBONE|DICT|INTERRES
    55   27   91 1    
    56   28   29 2    
    57   28   30 1    
    58   30   31 1    
    59   30   32 1    
    60   30   92 1    
    61   31   93 1    
    62   31   94 1    
    63   31   95 1    
    64   32   33 am   BACKBONE|DICT|INTERRES
    65   32   96 1    
    66   33   34 2    
    67   33   35 1    
    68   35   36 1    
    69   35   37 1    
    70   35   97 1    
    71   36   98 1    
    72   36   99 1    
    73   36  100 1    
    74   37   38 am   BACKBONE|DICT|INTERRES
    75   37  101 1    
    76   38   39 2    
    77   38   40 1    
    78   40   41 1    
    79   40   42 1    
    80   40  102 1    
    81   41  103 1    
    82   41  104 1    
    83   41  105 1    
    84   42   43 am   BACKBONE|DICT|INTERRES
    85   42  106 1    
    86   43   44 2    
    87   43   45 1    
    88   45   46 1    
    89   45   49 1    
    90   45  107 1    
    91   46   47 1    
    92   46  108 1    
    93   46  109 1    
    94   47   48 1    
    95   48  110 1    
    96   48  111 1    
    97   49   50 am   BACKBONE|DICT|INTERRES
    98   49  112 1    
    99   50   51 2    
   100   50   52 1    
   101   52   53 1    
   102   52   54 1    
   103   52  113 1    
   104   53  114 1    
   105   53  115 1    
   106   53  116 1    
   107   54   55 am   BACKBONE|DICT|INTERRES
   108   54  117 1    
   109   55   56 2    
   110   55   57 1    
   111   57   58 1    
   112   57   59 1    
   113   57  118 1    
   114   58  119 1    
   115   58  120 1    
   116   58  121 1    
   117   59   60 am   BACKBONE|DICT|INTERRES
   118   59  122 1    
   119   60   61 2    
   120   60   62 1    
   121   62   63 1    
   122   62   64 1    
   123   62  123 1    
   124   63  124 1    
   125   63  125 1    
   126   63  126 1    
   127   64   65 am   BACKBONE|DICT|INTERRES
   128   64  127 1    
   129   65   66 2    
@<TRIPOS>SUBSTRUCTURE
     1 UNK         1 GROUP             0       ****    0 ROOT    
