@<TRIPOS>MOLECULE
3R135
127   129    1
SMALL
USER_CHARGES


@<TRIPOS>ATOM
      1 CA        -85.7948   29.7910  -76.4180 C.3       0 UNK        -0.1998 
      2 C         -84.4149   29.1620  -76.2936 C.2       0 UNK         0.4909 
      3 O         -84.0015   28.4129  -77.1798 O.2       0 UNK        -0.5240 
      4 N         -83.6962   29.4668  -75.2054 N.am      1 UNK        -0.4739 
      5 CA        -82.3816   28.8987  -74.8889 C.3       1 UNK         0.0864 
      6 C6        -81.6290   29.7868  -73.8647 C.3       11 UNK        -0.0881 
      7 S7        -79.8232   29.5246  -73.9232 S.3       11 UNK        -0.2682 
      8 C8        -79.3778   29.5263  -72.1575 C.3       11 UNK         0.0289 
      9 C9        -78.1373   28.6822  -71.9073 C.ar      11 UNK        -0.0687 
     10 C10       -78.2491   27.4526  -71.2516 C.ar      11 UNK        -0.0823 
     11 C11       -77.1228   26.6519  -71.0435 C.ar      11 UNK        -0.0830 
     12 C12       -75.8759   27.0910  -71.4934 C.ar      11 UNK        -0.1021 
     13 C13       -75.7520   28.3142  -72.1571 C.ar      11 UNK        -0.0753 
     14 C14       -76.8824   29.1151  -72.3478 C.ar      11 UNK        -0.0933 
     15 C15       -74.4110   28.7162  -72.7452 C.3       11 UNK         0.0166 
     16 S16       -73.2215   29.2412  -71.4713 S.3       11 UNK        -0.2615 
     17 C17       -73.1818   31.0509  -71.7304 C.3       11 UNK        -0.0865 
     18 CA        -72.0739   31.5100  -72.7191 C.3       10 UNK         0.0862 
     19 C         -70.6440   31.4128  -72.1061 C.2       10 UNK         0.5551 
     20 N         -69.7120   30.6632  -72.6852 N.am      10 UNK        -0.7319 
     21 O         -70.3719   32.0471  -71.0896 O.2       10 UNK        -0.5018 
     22 N         -72.2274   30.8496  -74.0217 N.am      10 UNK        -0.4509 
     23 C         -71.7890   31.3125  -75.1957 C.2       10 UNK         0.4899 
     24 O         -71.2730   32.4211  -75.3456 O.2       10 UNK        -0.4839 
     25 CA        -71.9680   30.3683  -76.4025 C.3       9 UNK         0.0222 
     26 CB        -70.9791   30.6767  -77.5465 C.3       9 UNK        -0.1966 
     27 N         -71.9271   28.9372  -76.0600 N.am      9 UNK        -0.4218 
     28 C         -70.9099   28.2670  -75.4885 C.2       9 UNK         0.5020 
     29 O         -69.8884   28.8154  -75.0714 O.2       9 UNK        -0.5274 
     30 CA        -71.0383   26.7358  -75.3333 C.3       8 UNK         0.0270 
     31 CB        -71.1154   26.3400  -73.8491 C.3       8 UNK        -0.1976 
     32 N         -72.1783   26.1554  -76.0510 N.am      8 UNK        -0.4313 
     33 C         -72.2564   26.0380  -77.3868 C.2       8 UNK         0.5041 
     34 O         -71.3222   26.3021  -78.1445 O.2       8 UNK        -0.5577 
     35 CA        -73.6006   25.5879  -77.9978 C.3       7 UNK         0.0284 
     36 CB        -73.5289   24.1119  -78.4219 C.3       7 UNK        -0.1958 
     37 N         -74.7635   25.7720  -77.1246 N.am      7 UNK        -0.4454 
     38 C         -75.1686   26.9239  -76.5710 C.2       7 UNK         0.5089 
     39 O         -74.6390   28.0137  -76.7917 O.2       7 UNK        -0.5125 
     40 CA        -76.3056   26.8320  -75.5375 C.3       6 UNK         0.0408 
     41 CB        -77.6427   27.2308  -76.1759 C.3       6 UNK        -0.1791 
     42 N         -76.4404   25.5206  -74.8835 N.am      6 UNK        -0.4762 
     43 C         -75.4765   24.8838  -74.1967 C.2       6 UNK         0.5007 
     44 O         -74.3379   25.3370  -74.0639 O.2       6 UNK        -0.5032 
     45 CA        -75.7761   23.4834  -73.6305 C.3       5 UNK         0.0783 
     46 C46       -75.9761   23.4697  -72.0920 C.3       11 UNK        -0.0857 
     47 S47       -77.6379   23.9748  -71.5205 S.3       11 UNK        -0.2512 
     48 C48       -77.2619   25.3106  -70.3423 C.3       11 UNK         0.0225 
     49 N         -76.8513   22.7934  -74.3541 N.am      5 UNK        -0.4615 
     50 C         -76.7755   21.5283  -74.7894 C.2       4 UNK         0.5053 
     51 O         -75.7723   20.8246  -74.6640 O.2       4 UNK        -0.5105 
     52 CA        -78.0175   20.9171  -75.4683 C.3       4 UNK         0.0263 
     53 CB        -78.7883   20.0383  -74.4696 C.3       4 UNK        -0.1981 
     54 N         -78.9372   21.9013  -76.0404 N.am      4 UNK        -0.4224 
     55 C         -78.6666   22.6988  -77.0823 C.2       3 UNK         0.4895 
     56 O         -77.6207   22.6479  -77.7304 O.2       3 UNK        -0.5091 
     57 CA        -79.7299   23.7510  -77.4567 C.3       3 UNK         0.0250 
     58 CB        -80.5781   23.2502  -78.6371 C.3       3 UNK        -0.1996 
     59 N         -80.6265   24.1847  -76.3718 N.am      3 UNK        -0.4254 
     60 C         -80.2478   24.6462  -75.1716 C.2       2 UNK         0.5004 
     61 O         -79.0783   24.6673  -74.7874 O.2       2 UNK        -0.5226 
     62 CA        -81.3446   25.2349  -74.2813 C.3       2 UNK         0.0269 
     63 CB        -81.0381   25.0534  -72.7823 C.3       2 UNK        -0.1926 
     64 N         -81.4392   26.6538  -74.6080 N.am      2 UNK        -0.4687 
     65 C         -82.5099   27.4307  -74.4178 C.2       1 UNK         0.5165 
     66 O         -83.5536   27.0362  -73.8893 O.2       1 UNK        -0.5079 
     67 H67       -86.0246   30.4408  -75.5737 H         1 UNK         0.0900 
     68 H68       -86.5576   29.0143  -76.4653 H         1 UNK         0.0900 
     69 H69       -85.8558   30.3852  -77.3294 H         1 UNK         0.0900 
     70 H70       -84.1015   30.0595  -74.4950 H         1 UNK         0.2959 
     71 H71       -81.8095   28.8955  -75.8203 H         1 UNK         0.1079 
     72 H72       -82.0184   29.6342  -72.8566 H         1 UNK         0.0837 
     73 H73       -81.7954   30.8415  -74.0905 H         1 UNK         0.0837 
     74 H74       -80.2094   29.1489  -71.5609 H         1 UNK         0.0685 
     75 H75       -79.2016   30.5518  -71.8300 H         1 UNK         0.0685 
     76 H76       -79.2168   27.1105  -70.9118 H         1 UNK         0.1434 
     77 H77       -75.0015   26.4698  -71.3564 H         1 UNK         0.1329 
     78 H78       -76.7973   30.0559  -72.8740 H         1 UNK         0.1335 
     79 H79       -74.5483   29.4946  -73.4963 H         1 UNK         0.0680 
     80 H80       -73.9957   27.8637  -73.2808 H         1 UNK         0.0680 
     81 H81       -74.1579   31.3842  -72.0862 H         1 UNK         0.1032 
     82 H82       -73.0540   31.5358  -70.7606 H         1 UNK         0.1032 
     83 H83       -72.2343   32.5770  -72.8856 H         1 UNK         0.0461 
     84 H84       -68.7931   30.6206  -72.2750 H         1 UNK         0.3453 
     85 H85       -69.9103   30.1334  -73.5268 H         1 UNK         0.3453 
     86 H86       -72.5942   29.9113  -73.9889 H         1 UNK         0.2984 
     87 H87       -72.9743   30.5544  -76.7802 H         1 UNK         0.0554 
     88 H88       -71.1365   30.0126  -78.3964 H         1 UNK         0.0847 
     89 H89       -69.9428   30.5687  -77.2242 H         1 UNK         0.0847 
     90 H90       -71.1022   31.6981  -77.9087 H         1 UNK         0.0847 
     91 H91       -72.7533   28.4128  -76.3365 H         1 UNK         0.3141 
     92 H92       -70.1258   26.3008  -75.7464 H         1 UNK         0.0743 
     93 H93       -70.2476   26.7078  -73.2997 H         1 UNK         0.0784 
     94 H94       -72.0010   26.7472  -73.3635 H         1 UNK         0.0784 
     95 H95       -71.1383   25.2569  -73.7282 H         1 UNK         0.0784 
     96 H96       -72.9818   25.8933  -75.4866 H         1 UNK         0.3213 
     97 H97       -73.7659   26.1961  -78.8896 H         1 UNK         0.0855 
     98 H98       -73.3876   23.4525  -77.5645 H         1 UNK         0.0814 
     99 H99       -72.6954   23.9415  -79.1050 H         1 UNK         0.0814 
    100 H100      -74.4372   23.8011  -78.9390 H         1 UNK         0.0814 
    101 H101      -75.2715   24.9373  -76.8688 H         1 UNK         0.3105 
    102 H102      -76.0836   27.5593  -74.7589 H         1 UNK         0.0547 
    103 H103      -78.4310   27.2821  -75.4263 H         1 UNK         0.0837 
    104 H104      -77.5775   28.2156  -76.6406 H         1 UNK         0.0837 
    105 H105      -77.9500   26.5230  -76.9453 H         1 UNK         0.0837 
    106 H106      -77.3785   25.1227  -74.8893 H         1 UNK         0.3020 
    107 H107      -74.8441   22.9439  -73.8151 H         1 UNK         0.1245 
    108 H108      -75.2070   24.0668  -71.5998 H         1 UNK         0.0781 
    109 H109      -75.8190   22.4526  -71.7300 H         1 UNK         0.0781 
    110 H110      -76.3606   25.0739  -69.7749 H         1 UNK         0.0836 
    111 H111      -78.0692   25.3637  -69.6103 H         1 UNK         0.0836 
    112 H112      -77.7168   23.3115  -74.4739 H         1 UNK         0.3022 
    113 H113      -77.6623   20.2810  -76.2819 H         1 UNK         0.0747 
    114 H114      -79.6248   19.5297  -74.9493 H         1 UNK         0.0793 
    115 H115      -78.1419   19.2671  -74.0480 H         1 UNK         0.0793 
    116 H116      -79.1812   20.6241  -73.6372 H         1 UNK         0.0793 
    117 H117      -79.8212   22.0241  -75.5692 H         1 UNK         0.3047 
    118 H118      -79.1852   24.6367  -77.7881 H         1 UNK         0.0822 
    119 H119      -79.9462   22.9453  -79.4728 H         1 UNK         0.0807 
    120 H120      -81.2444   24.0293  -79.0079 H         1 UNK         0.0807 
    121 H121      -81.1876   22.3895  -78.3588 H         1 UNK         0.0807 
    122 H122      -81.6091   24.2191  -76.6041 H         1 UNK         0.2946 
    123 H123      -82.2895   24.7368  -74.5101 H         1 UNK         0.1144 
    124 H124      -80.9059   23.9995  -72.5349 H         1 UNK         0.0793 
    125 H125      -81.8461   25.4362  -72.1590 H         1 UNK         0.0793 
    126 H126      -80.1222   25.5707  -72.4974 H         1 UNK         0.0793 
    127 H127      -80.6093   27.0578  -75.0210 H         1 UNK         0.2896 
@<TRIPOS>BOND
     1    1    2 1    
     2    1   67 1    
     3    1   68 1    
     4    1   69 1    
     5    2    3 2    
     6    2    4 am   BACKBONE|DICT|INTERRES
     7    4    5 1    
     8    4   70 1    
     9    5    6 1    
    10    5   65 1    
    11    5   71 1    
    12    6    7 1    
    13    6   72 1    
    14    6   73 1    
    15    7    8 1    
    16    8    9 1    
    17    8   74 1    
    18    8   75 1    
    19    9   10 ar   
    20    9   14 ar   
    21   10   11 ar   
    22   10   76 1    
    23   11   12 ar   
    24   11   48 1    
    25   12   13 ar   
    26   12   77 1    
    27   13   14 ar   
    28   13   15 1    
    29   14   78 1    
    30   15   16 1    
    31   15   79 1    
    32   15   80 1    
    33   16   17 1    
    34   17   18 1    
    35   17   81 1    
    36   17   82 1    
    37   18   19 1    
    38   18   22 1    
    39   18   83 1    
    40   19   20 am   BACKBONE|DICT|INTERRES
    41   19   21 2    
    42   20   84 1    
    43   20   85 1    
    44   22   23 am   BACKBONE|DICT|INTERRES
    45   22   86 1    
    46   23   24 2    
    47   23   25 1    
    48   25   26 1    
    49   25   27 1    
    50   25   87 1    
    51   26   88 1    
    52   26   89 1    
    53   26   90 1    
    54   27   28 am   BACKBONE|DICT|INTERRES
    55   27   91 1    
    56   28   29 2    
    57   28   30 1    
    58   30   31 1    
    59   30   32 1    
    60   30   92 1    
    61   31   93 1    
    62   31   94 1    
    63   31   95 1    
    64   32   33 am   BACKBONE|DICT|INTERRES
    65   32   96 1    
    66   33   34 2    
    67   33   35 1    
    68   35   36 1    
    69   35   37 1    
    70   35   97 1    
    71   36   98 1    
    72   36   99 1    
    73   36  100 1    
    74   37   38 am   BACKBONE|DICT|INTERRES
    75   37  101 1    
    76   38   39 2    
    77   38   40 1    
    78   40   41 1    
    79   40   42 1    
    80   40  102 1    
    81   41  103 1    
    82   41  104 1    
    83   41  105 1    
    84   42   43 am   BACKBONE|DICT|INTERRES
    85   42  106 1    
    86   43   44 2    
    87   43   45 1    
    88   45   46 1    
    89   45   49 1    
    90   45  107 1    
    91   46   47 1    
    92   46  108 1    
    93   46  109 1    
    94   47   48 1    
    95   48  110 1    
    96   48  111 1    
    97   49   50 am   BACKBONE|DICT|INTERRES
    98   49  112 1    
    99   50   51 2    
   100   50   52 1    
   101   52   53 1    
   102   52   54 1    
   103   52  113 1    
   104   53  114 1    
   105   53  115 1    
   106   53  116 1    
   107   54   55 am   BACKBONE|DICT|INTERRES
   108   54  117 1    
   109   55   56 2    
   110   55   57 1    
   111   57   58 1    
   112   57   59 1    
   113   57  118 1    
   114   58  119 1    
   115   58  120 1    
   116   58  121 1    
   117   59   60 am   BACKBONE|DICT|INTERRES
   118   59  122 1    
   119   60   61 2    
   120   60   62 1    
   121   62   63 1    
   122   62   64 1    
   123   62  123 1    
   124   63  124 1    
   125   63  125 1    
   126   63  126 1    
   127   64   65 am   BACKBONE|DICT|INTERRES
   128   64  127 1    
   129   65   66 2    
@<TRIPOS>SUBSTRUCTURE
     1 UNK         1 GROUP             0       ****    0 ROOT    
