@<TRIPOS>MOLECULE
3R135
127   129    1
SMALL
USER_CHARGES


@<TRIPOS>ATOM
      1 CA        -85.7939   29.2312  -73.3373 C.3       0 UNK        -0.1998 
      2 C         -84.4229   28.6737  -73.6900 C.2       0 UNK         0.4909 
      3 O         -83.9456   27.7611  -73.0154 O.2       0 UNK        -0.5240 
      4 N         -83.7909   29.2216  -74.7376 N.am      1 UNK        -0.4739 
      5 CA        -82.4920   28.8099  -75.2831 C.3       1 UNK         0.0864 
      6 C6        -81.3204   29.0393  -74.2856 C.3       11 UNK        -0.0881 
      7 S7        -79.7353   29.2408  -75.1641 S.3       11 UNK        -0.2682 
      8 C8        -78.8181   30.3875  -74.0823 C.3       11 UNK         0.0289 
      9 C9        -78.1149   29.7629  -72.8743 C.ar      11 UNK        -0.0687 
     10 C10       -78.3458   28.4507  -72.4335 C.ar      11 UNK        -0.0823 
     11 C11       -77.6796   27.9462  -71.3115 C.ar      11 UNK        -0.0830 
     12 C12       -76.7685   28.7565  -70.6297 C.ar      11 UNK        -0.1021 
     13 C13       -76.5160   30.0591  -71.0643 C.ar      11 UNK        -0.0753 
     14 C14       -77.1976   30.5559  -72.1776 C.ar      11 UNK        -0.0933 
     15 C15       -75.5095   30.9340  -70.3319 C.3       11 UNK         0.0166 
     16 S16       -73.9455   31.0824  -71.2514 S.3       11 UNK        -0.2615 
     17 C17       -73.2908   29.3840  -71.1229 C.3       11 UNK        -0.0865 
     18 CA        -72.1031   29.1353  -72.0845 C.3       10 UNK         0.0862 
     19 C         -71.4683   27.7495  -71.8174 C.2       10 UNK         0.5551 
     20 N         -70.2576   27.7088  -71.2794 N.am      10 UNK        -0.7319 
     21 O         -72.0816   26.7123  -72.0589 O.2       10 UNK        -0.5018 
     22 N         -72.5237   29.1971  -73.4873 N.am      10 UNK        -0.4509 
     23 C         -72.0270   30.0201  -74.4154 C.2       10 UNK         0.4899 
     24 O         -71.2158   30.9193  -74.1852 O.2       10 UNK        -0.4839 
     25 CA        -72.5042   29.7513  -75.8549 C.3       9 UNK         0.0222 
     26 CB        -71.8954   30.7159  -76.8945 C.3       9 UNK        -0.1966 
     27 N         -72.2826   28.3522  -76.2389 N.am      9 UNK        -0.4218 
     28 C         -71.1154   27.6895  -76.2893 C.2       9 UNK         0.5020 
     29 O         -70.0153   28.2089  -76.0960 O.2       9 UNK        -0.5274 
     30 CA        -71.1729   26.1791  -76.5856 C.3       8 UNK         0.0270 
     31 CB        -70.9515   25.3767  -75.2928 C.3       8 UNK        -0.1976 
     32 N         -72.4294   25.7477  -77.2018 N.am      8 UNK        -0.4313 
     33 C         -72.7890   26.0014  -78.4668 C.2       8 UNK         0.5041 
     34 O         -72.0716   26.5815  -79.2825 O.2       8 UNK        -0.5577 
     35 CA        -74.2012   25.5573  -78.8806 C.3       7 UNK         0.0284 
     36 CB        -74.2263   24.0607  -79.2319 C.3       7 UNK        -0.1958 
     37 N         -75.2027   25.8393  -77.8488 N.am      7 UNK        -0.4454 
     38 C         -75.6024   27.0667  -77.4847 C.2       7 UNK         0.5089 
     39 O         -75.1724   28.1082  -77.9792 O.2       7 UNK        -0.5125 
     40 CA        -76.6479   27.1360  -76.3624 C.3       6 UNK         0.0408 
     41 CB        -78.0398   26.8049  -76.9242 C.3       6 UNK        -0.1791 
     42 N         -76.3211   26.2232  -75.2653 N.am      6 UNK        -0.4762 
     43 C         -75.2946   26.3965  -74.4159 C.2       6 UNK         0.5007 
     44 O         -74.5606   27.3853  -74.4290 O.2       6 UNK        -0.5032 
     45 CA        -74.9845   25.2499  -73.4280 C.3       5 UNK         0.0783 
     46 C46       -75.5971   25.4930  -72.0263 C.3       11 UNK        -0.0857 
     47 S47       -77.4073   25.2467  -71.9757 S.3       11 UNK        -0.2512 
     48 C48       -77.9606   26.5343  -70.8143 C.3       11 UNK         0.0225 
     49 N         -75.3364   23.9292  -73.9581 N.am      5 UNK        -0.4615 
     50 C         -74.7829   23.3611  -75.0359 C.2       4 UNK         0.5053 
     51 O         -73.8624   23.8684  -75.6744 O.2       4 UNK        -0.5105 
     52 CA        -75.3785   22.0260  -75.5124 C.3       4 UNK         0.0263 
     53 CB        -74.5620   20.8494  -74.9559 C.3       4 UNK        -0.1981 
     54 N         -76.7948   21.8428  -75.1720 N.am      4 UNK        -0.4224 
     55 C         -77.7998   22.6185  -75.6051 C.2       3 UNK         0.4895 
     56 O         -77.6292   23.5994  -76.3316 O.2       3 UNK        -0.5091 
     57 CA        -79.2172   22.1907  -75.1750 C.3       3 UNK         0.0250 
     58 CB        -79.3215   21.9358  -73.6536 C.3       3 UNK        -0.1996 
     59 N         -80.2781   23.1031  -75.6283 N.am      3 UNK        -0.4254 
     60 C         -80.5260   24.3539  -75.2105 C.2       2 UNK         0.5004 
     61 O         -79.8620   24.9577  -74.3646 O.2       2 UNK        -0.5226 
     62 CA        -81.7661   25.0290  -75.8154 C.3       2 UNK         0.0269 
     63 CB        -83.0551   24.3204  -75.3427 C.3       2 UNK        -0.1926 
     64 N         -81.7853   26.4340  -75.4102 N.am      2 UNK        -0.4687 
     65 C         -82.5882   27.3897  -75.8928 C.2       1 UNK         0.5165 
     66 O         -83.4024   27.1922  -76.7981 O.2       1 UNK        -0.5079 
     67 H67       -86.0908   30.0397  -74.0053 H         1 UNK         0.0900 
     68 H68       -86.5458   28.4452  -73.4014 H         1 UNK         0.0900 
     69 H69       -85.7907   29.6176  -72.3184 H         1 UNK         0.0900 
     70 H70       -84.2593   29.9479  -75.2621 H         1 UNK         0.2959 
     71 H71       -82.3305   29.4739  -76.1343 H         1 UNK         0.1079 
     72 H72       -81.2519   28.2476  -73.5384 H         1 UNK         0.0837 
     73 H73       -81.5048   29.9539  -73.7202 H         1 UNK         0.0837 
     74 H74       -79.4858   31.1794  -73.7406 H         1 UNK         0.0685 
     75 H75       -78.0635   30.8740  -74.7023 H         1 UNK         0.0685 
     76 H76       -79.0373   27.8043  -72.9533 H         1 UNK         0.1434 
     77 H77       -76.2496   28.3717  -69.7622 H         1 UNK         0.1329 
     78 H78       -77.0025   31.5672  -72.5084 H         1 UNK         0.1335 
     79 H79       -75.9316   31.9301  -70.1911 H         1 UNK         0.0680 
     80 H80       -75.3071   30.5440  -69.3330 H         1 UNK         0.0680 
     81 H81       -74.0881   28.6694  -71.3303 H         1 UNK         0.1032 
     82 H82       -72.9893   29.2191  -70.0866 H         1 UNK         0.1032 
     83 H83       -71.3474   29.8985  -71.8870 H         1 UNK         0.0461 
     84 H84       -69.7505   28.5546  -71.0696 H         1 UNK         0.3453 
     85 H85       -69.8389   26.8126  -71.0862 H         1 UNK         0.3453 
     86 H86       -73.1805   28.4754  -73.7784 H         1 UNK         0.2984 
     87 H87       -73.5851   29.9016  -75.8579 H         1 UNK         0.0554 
     88 H88       -72.1459   31.7506  -76.6575 H         1 UNK         0.0847 
     89 H89       -72.2769   30.5104  -77.8946 H         1 UNK         0.0847 
     90 H90       -70.8078   30.6458  -76.9292 H         1 UNK         0.0847 
     91 H91       -73.1256   27.8138  -76.3873 H         1 UNK         0.3141 
     92 H92       -70.3580   25.9492  -77.2753 H         1 UNK         0.0743 
     93 H93       -70.0081   25.6489  -74.8174 H         1 UNK         0.0784 
     94 H94       -71.7453   25.5591  -74.5678 H         1 UNK         0.0784 
     95 H95       -70.9190   24.3051  -75.4903 H         1 UNK         0.0784 
     96 H96       -73.0516   25.1840  -76.6226 H         1 UNK         0.3213 
     97 H97       -74.4763   26.1208  -79.7750 H         1 UNK         0.0855 
     98 H98       -73.9616   23.4367  -78.3778 H         1 UNK         0.0814 
     99 H99       -73.5158   23.8376  -80.0290 H         1 UNK         0.0814 
    100 H100      -75.2114   23.7511  -79.5812 H         1 UNK         0.0814 
    101 H101      -75.6079   25.0466  -77.3696 H         1 UNK         0.3105 
    102 H102      -76.6701   28.1522  -75.9625 H         1 UNK         0.0547 
    103 H103      -78.0487   25.8742  -77.4913 H         1 UNK         0.0837 
    104 H104      -78.3825   27.5936  -77.5947 H         1 UNK         0.0837 
    105 H105      -78.7763   26.7098  -76.1287 H         1 UNK         0.0837 
    106 H106      -76.8710   25.3740  -75.2035 H         1 UNK         0.3020 
    107 H107      -73.8992   25.2534  -73.3069 H         1 UNK         0.1245 
    108 H108      -75.3372   26.4903  -71.6695 H         1 UNK         0.0781 
    109 H109      -75.1492   24.8030  -71.3099 H         1 UNK         0.0781 
    110 H110      -77.4921   26.3598  -69.8444 H         1 UNK         0.0836 
    111 H111      -79.0343   26.4226  -70.6571 H         1 UNK         0.0836 
    112 H112      -76.1066   23.4628  -73.5017 H         1 UNK         0.3022 
    113 H113      -75.2996   22.0104  -76.6014 H         1 UNK         0.0747 
    114 H114      -74.9048   19.8986  -75.3643 H         1 UNK         0.0793 
    115 H115      -73.5071   20.9492  -75.2164 H         1 UNK         0.0793 
    116 H116      -74.6247   20.7919  -73.8684 H         1 UNK         0.0793 
    117 H117      -77.0164   21.0478  -74.5901 H         1 UNK         0.3047 
    118 H118      -79.4118   21.2443  -75.6820 H         1 UNK         0.0822 
    119 H119      -80.3439   21.6933  -73.3635 H         1 UNK         0.0807 
    120 H120      -79.0108   22.8052  -73.0733 H         1 UNK         0.0807 
    121 H121      -78.6988   21.0975  -73.3409 H         1 UNK         0.0807 
    122 H122      -80.8756   22.7264  -76.3506 H         1 UNK         0.2946 
    123 H123      -81.6888   24.9783  -76.9036 H         1 UNK         0.1144 
    124 H124      -83.9462   24.7581  -75.7923 H         1 UNK         0.0793 
    125 H125      -83.1671   24.3798  -74.2592 H         1 UNK         0.0793 
    126 H126      -83.0544   23.2641  -75.6132 H         1 UNK         0.0793 
    127 H127      -81.0990   26.6590  -74.6994 H         1 UNK         0.2896 
@<TRIPOS>BOND
     1    1    2 1    
     2    1   67 1    
     3    1   68 1    
     4    1   69 1    
     5    2    3 2    
     6    2    4 am   BACKBONE|DICT|INTERRES
     7    4    5 1    
     8    4   70 1    
     9    5    6 1    
    10    5   65 1    
    11    5   71 1    
    12    6    7 1    
    13    6   72 1    
    14    6   73 1    
    15    7    8 1    
    16    8    9 1    
    17    8   74 1    
    18    8   75 1    
    19    9   10 ar   
    20    9   14 ar   
    21   10   11 ar   
    22   10   76 1    
    23   11   12 ar   
    24   11   48 1    
    25   12   13 ar   
    26   12   77 1    
    27   13   14 ar   
    28   13   15 1    
    29   14   78 1    
    30   15   16 1    
    31   15   79 1    
    32   15   80 1    
    33   16   17 1    
    34   17   18 1    
    35   17   81 1    
    36   17   82 1    
    37   18   19 1    
    38   18   22 1    
    39   18   83 1    
    40   19   20 am   BACKBONE|DICT|INTERRES
    41   19   21 2    
    42   20   84 1    
    43   20   85 1    
    44   22   23 am   BACKBONE|DICT|INTERRES
    45   22   86 1    
    46   23   24 2    
    47   23   25 1    
    48   25   26 1    
    49   25   27 1    
    50   25   87 1    
    51   26   88 1    
    52   26   89 1    
    53   26   90 1    
    54   27   28 am   BACKBONE|DICT|INTERRES
    55   27   91 1    
    56   28   29 2    
    57   28   30 1    
    58   30   31 1    
    59   30   32 1    
    60   30   92 1    
    61   31   93 1    
    62   31   94 1    
    63   31   95 1    
    64   32   33 am   BACKBONE|DICT|INTERRES
    65   32   96 1    
    66   33   34 2    
    67   33   35 1    
    68   35   36 1    
    69   35   37 1    
    70   35   97 1    
    71   36   98 1    
    72   36   99 1    
    73   36  100 1    
    74   37   38 am   BACKBONE|DICT|INTERRES
    75   37  101 1    
    76   38   39 2    
    77   38   40 1    
    78   40   41 1    
    79   40   42 1    
    80   40  102 1    
    81   41  103 1    
    82   41  104 1    
    83   41  105 1    
    84   42   43 am   BACKBONE|DICT|INTERRES
    85   42  106 1    
    86   43   44 2    
    87   43   45 1    
    88   45   46 1    
    89   45   49 1    
    90   45  107 1    
    91   46   47 1    
    92   46  108 1    
    93   46  109 1    
    94   47   48 1    
    95   48  110 1    
    96   48  111 1    
    97   49   50 am   BACKBONE|DICT|INTERRES
    98   49  112 1    
    99   50   51 2    
   100   50   52 1    
   101   52   53 1    
   102   52   54 1    
   103   52  113 1    
   104   53  114 1    
   105   53  115 1    
   106   53  116 1    
   107   54   55 am   BACKBONE|DICT|INTERRES
   108   54  117 1    
   109   55   56 2    
   110   55   57 1    
   111   57   58 1    
   112   57   59 1    
   113   57  118 1    
   114   58  119 1    
   115   58  120 1    
   116   58  121 1    
   117   59   60 am   BACKBONE|DICT|INTERRES
   118   59  122 1    
   119   60   61 2    
   120   60   62 1    
   121   62   63 1    
   122   62   64 1    
   123   62  123 1    
   124   63  124 1    
   125   63  125 1    
   126   63  126 1    
   127   64   65 am   BACKBONE|DICT|INTERRES
   128   64  127 1    
   129   65   66 2    
@<TRIPOS>SUBSTRUCTURE
     1 UNK         1 GROUP             0       ****    0 ROOT    
