@<TRIPOS>MOLECULE
3R135
127   129    1
SMALL
USER_CHARGES


@<TRIPOS>ATOM
      1 CA        -84.3133   26.5192  -70.5024 C.3       0 UNK        -0.1998 
      2 C         -84.2610   27.5019  -71.6625 C.2       0 UNK         0.4909 
      3 O         -85.2460   27.6510  -72.3858 O.2       0 UNK        -0.5240 
      4 N         -83.1166   28.1733  -71.8450 N.am      1 UNK        -0.4739 
      5 CA        -82.8805   29.1586  -72.9083 C.3       1 UNK         0.0864 
      6 C6        -81.6142   30.0106  -72.6411 C.3       11 UNK        -0.0881 
      7 S7        -81.6017   30.8839  -71.0346 S.3       11 UNK        -0.2682 
      8 C8        -80.8543   29.6922  -69.8622 C.3       11 UNK         0.0289 
      9 C9        -79.6912   28.8909  -70.4381 C.ar      11 UNK        -0.0687 
     10 C10       -79.7506   27.4948  -70.4739 C.ar      11 UNK        -0.0823 
     11 C11       -78.6971   26.7502  -71.0110 C.ar      11 UNK        -0.0830 
     12 C12       -77.5775   27.4163  -71.5215 C.ar      11 UNK        -0.1021 
     13 C13       -77.4959   28.8160  -71.4867 C.ar      11 UNK        -0.0753 
     14 C14       -78.5576   29.5404  -70.9352 C.ar      11 UNK        -0.0933 
     15 C15       -76.3054   29.6010  -72.0426 C.3       11 UNK         0.0166 
     16 S16       -74.8162   28.6213  -72.4372 S.3       11 UNK        -0.2615 
     17 C17       -73.6903   29.9442  -72.9966 C.3       11 UNK        -0.0865 
     18 CA        -73.8205   30.2650  -74.5095 C.3       10 UNK         0.0862 
     19 C         -72.9363   31.4916  -74.8879 C.2       10 UNK         0.5551 
     20 N         -71.9314   31.3630  -75.7469 N.am      10 UNK        -0.7319 
     21 O         -73.1727   32.5887  -74.3883 O.2       10 UNK        -0.5018 
     22 N         -73.6066   29.0712  -75.3410 N.am      10 UNK        -0.4509 
     23 C         -73.9565   28.9578  -76.6282 C.2       10 UNK         0.4899 
     24 O         -74.5807   29.8225  -77.2456 O.2       10 UNK        -0.4839 
     25 CA        -73.5147   27.6646  -77.3454 C.3       9 UNK         0.0222 
     26 CB        -73.5290   27.7998  -78.8816 C.3       9 UNK        -0.1966 
     27 N         -72.2191   27.1377  -76.8930 N.am      9 UNK        -0.4218 
     28 C         -71.0424   27.7871  -76.8514 C.2       9 UNK         0.5020 
     29 O         -70.9014   28.9703  -77.1646 O.2       9 UNK        -0.5274 
     30 CA        -69.8126   27.0088  -76.3428 C.3       8 UNK         0.0270 
     31 CB        -69.5110   27.3915  -74.8840 C.3       8 UNK        -0.1976 
     32 N         -69.9535   25.5535  -76.4349 N.am      8 UNK        -0.4313 
     33 C         -69.9929   24.8548  -77.5779 C.2       8 UNK         0.5041 
     34 O         -69.8015   25.3520  -78.6882 O.2       8 UNK        -0.5577 
     35 CA        -70.3236   23.3520  -77.4757 C.3       7 UNK         0.0284 
     36 CB        -69.0424   22.5131  -77.6147 C.3       7 UNK        -0.1958 
     37 N         -71.0353   22.9434  -76.2546 N.am      7 UNK        -0.4454 
     38 C         -72.2208   23.4143  -75.8446 C.2       7 UNK         0.5089 
     39 O         -72.8321   24.3279  -76.4081 O.2       7 UNK        -0.5125 
     40 CA        -72.7997   22.7883  -74.5697 C.3       6 UNK         0.0408 
     41 CB        -72.0423   23.2655  -73.3173 C.3       6 UNK        -0.1791 
     42 N         -74.1978   23.1851  -74.4759 N.am      6 UNK        -0.4762 
     43 C         -75.1925   22.5156  -73.8830 C.2       6 UNK         0.5007 
     44 O         -75.0351   21.4569  -73.2737 O.2       6 UNK        -0.5032 
     45 CA        -76.6016   23.1369  -73.9836 C.3       5 UNK         0.0783 
     46 C46       -76.9937   23.8012  -72.6417 C.3       11 UNK        -0.0857 
     47 S47       -78.6805   24.5007  -72.6634 S.3       11 UNK        -0.2512 
     48 C48       -78.7605   25.2271  -70.9950 C.3       11 UNK         0.0225 
     49 N         -76.6830   24.0935  -75.0888 N.am      5 UNK        -0.4615 
     50 C         -76.8714   23.8007  -76.3781 C.2       4 UNK         0.5053 
     51 O         -77.0254   22.6519  -76.7951 O.2       4 UNK        -0.5105 
     52 CA        -76.8942   24.9976  -77.3552 C.3       4 UNK         0.0263 
     53 CB        -77.4319   24.6157  -78.7462 C.3       4 UNK        -0.1981 
     54 N         -77.6655   26.1400  -76.8502 N.am      4 UNK        -0.4224 
     55 C         -77.3137   26.9764  -75.8657 C.2       3 UNK         0.4895 
     56 O         -76.2432   26.8940  -75.2659 O.2       3 UNK        -0.5091 
     57 CA        -78.3394   28.0342  -75.4260 C.3       3 UNK         0.0250 
     58 CB        -78.3350   29.2476  -76.3740 C.3       3 UNK        -0.1996 
     59 N         -79.6980   27.5108  -75.2132 N.am      3 UNK        -0.4254 
     60 C         -80.5653   26.9976  -76.1020 C.2       2 UNK         0.5004 
     61 O         -80.3294   26.8723  -77.3041 O.2       2 UNK        -0.5226 
     62 CA        -81.9236   26.5237  -75.5533 C.3       2 UNK         0.0269 
     63 CB        -81.8887   25.0126  -75.2731 C.3       2 UNK        -0.1926 
     64 N         -82.3142   27.2328  -74.3317 N.am      2 UNK        -0.4687 
     65 C         -82.7441   28.5036  -74.2989 C.2       1 UNK         0.5165 
     66 O         -82.9818   29.1685  -75.3080 O.2       1 UNK        -0.5079 
     67 H67       -85.1155   26.7914  -69.8170 H         1 UNK         0.0900 
     68 H68       -84.5080   25.5128  -70.8721 H         1 UNK         0.0900 
     69 H69       -83.3802   26.4994  -69.9399 H         1 UNK         0.0900 
     70 H70       -82.3476   28.0330  -71.2084 H         1 UNK         0.2959 
     71 H71       -83.7438   29.8269  -72.9473 H         1 UNK         0.1079 
     72 H72       -81.5313   30.7844  -73.4074 H         1 UNK         0.0837 
     73 H73       -80.7104   29.4120  -72.7528 H         1 UNK         0.0837 
     74 H74       -81.6385   29.0278  -69.4971 H         1 UNK         0.0685 
     75 H75       -80.5016   30.2423  -68.9888 H         1 UNK         0.0685 
     76 H76       -80.6127   26.9827  -70.0693 H         1 UNK         0.1434 
     77 H77       -76.7739   26.8327  -71.9449 H         1 UNK         0.1329 
     78 H78       -78.5127   30.6209  -70.9072 H         1 UNK         0.1335 
     79 H79       -76.6285   30.1197  -72.9462 H         1 UNK         0.0680 
     80 H80       -76.0258   30.3709  -71.3216 H         1 UNK         0.0680 
     81 H81       -72.6686   29.6372  -72.7654 H         1 UNK         0.1032 
     82 H82       -73.8738   30.8362  -72.3942 H         1 UNK         0.1032 
     83 H83       -74.8497   30.5848  -74.6829 H         1 UNK         0.0461 
     84 H84       -71.3772   32.1720  -75.9767 H         1 UNK         0.3453 
     85 H85       -71.7224   30.4718  -76.1857 H         1 UNK         0.3453 
     86 H86       -73.1240   28.3023  -74.9021 H         1 UNK         0.2984 
     87 H87       -74.2492   26.9077  -77.0755 H         1 UNK         0.0554 
     88 H88       -74.5237   28.0625  -79.2438 H         1 UNK         0.0847 
     89 H89       -73.2474   26.8637  -79.3638 H         1 UNK         0.0847 
     90 H90       -72.8408   28.5739  -79.2228 H         1 UNK         0.0847 
     91 H91       -72.2370   26.1578  -76.6213 H         1 UNK         0.3141 
     92 H92       -68.9617   27.3061  -76.9595 H         1 UNK         0.0743 
     93 H93       -69.3727   28.4692  -74.7837 H         1 UNK         0.0784 
     94 H94       -70.3218   27.1041  -74.2133 H         1 UNK         0.0784 
     95 H95       -68.5959   26.9165  -74.5296 H         1 UNK         0.0784 
     96 H96       -70.0991   25.0527  -75.5709 H         1 UNK         0.3213 
     97 H97       -70.9764   23.1180  -78.3194 H         1 UNK         0.0855 
     98 H98       -68.3607   22.6756  -76.7789 H         1 UNK         0.0814 
     99 H99       -68.5037   22.7701  -78.5282 H         1 UNK         0.0814 
    100 H100      -69.2668   21.4475  -77.6652 H         1 UNK         0.0814 
    101 H101      -70.6060   22.2026  -75.7180 H         1 UNK         0.3105 
    102 H102      -72.7323   21.7018  -74.6563 H         1 UNK         0.0547 
    103 H103      -72.4630   22.8296  -72.4110 H         1 UNK         0.0837 
    104 H104      -72.0803   24.3506  -73.2125 H         1 UNK         0.0837 
    105 H105      -70.9917   22.9755  -73.3533 H         1 UNK         0.0837 
    106 H106      -74.4217   24.0135  -75.0146 H         1 UNK         0.3020 
    107 H107      -77.2983   22.3187  -74.1804 H         1 UNK         0.1245 
    108 H108      -76.2873   24.5935  -72.3874 H         1 UNK         0.0781 
    109 H109      -76.9438   23.0715  -71.8308 H         1 UNK         0.0781 
    110 H110      -79.6845   24.8865  -70.5255 H         1 UNK         0.0836 
    111 H111      -77.9518   24.8435  -70.3715 H         1 UNK         0.0836 
    112 H112      -76.5514   25.0723  -74.8496 H         1 UNK         0.3022 
    113 H113      -75.8576   25.3134  -77.4794 H         1 UNK         0.0747 
    114 H114      -77.3916   25.4618  -79.4325 H         1 UNK         0.0793 
    115 H115      -76.8409   23.8139  -79.1908 H         1 UNK         0.0793 
    116 H116      -78.4663   24.2731  -78.6961 H         1 UNK         0.0793 
    117 H117      -78.5957   26.2728  -77.2426 H         1 UNK         0.3047 
    118 H118      -78.0100   28.3892  -74.4482 H         1 UNK         0.0822 
    119 H119      -79.0026   30.0312  -76.0161 H         1 UNK         0.0807 
    120 H120      -78.6431   28.9797  -77.3850 H         1 UNK         0.0807 
    121 H121      -77.3356   29.6795  -76.4443 H         1 UNK         0.0807 
    122 H122      -79.9941   27.5026  -74.2479 H         1 UNK         0.2946 
    123 H123      -82.6737   26.7156  -76.3244 H         1 UNK         0.1144 
    124 H124      -81.1588   24.7591  -74.5036 H         1 UNK         0.0793 
    125 H125      -81.6201   24.4555  -76.1719 H         1 UNK         0.0793 
    126 H126      -82.8625   24.6473  -74.9463 H         1 UNK         0.0793 
    127 H127      -82.1775   26.7513  -73.4548 H         1 UNK         0.2896 
@<TRIPOS>BOND
     1    1    2 1    
     2    1   67 1    
     3    1   68 1    
     4    1   69 1    
     5    2    3 2    
     6    2    4 am   BACKBONE|DICT|INTERRES
     7    4    5 1    
     8    4   70 1    
     9    5    6 1    
    10    5   65 1    
    11    5   71 1    
    12    6    7 1    
    13    6   72 1    
    14    6   73 1    
    15    7    8 1    
    16    8    9 1    
    17    8   74 1    
    18    8   75 1    
    19    9   10 ar   
    20    9   14 ar   
    21   10   11 ar   
    22   10   76 1    
    23   11   12 ar   
    24   11   48 1    
    25   12   13 ar   
    26   12   77 1    
    27   13   14 ar   
    28   13   15 1    
    29   14   78 1    
    30   15   16 1    
    31   15   79 1    
    32   15   80 1    
    33   16   17 1    
    34   17   18 1    
    35   17   81 1    
    36   17   82 1    
    37   18   19 1    
    38   18   22 1    
    39   18   83 1    
    40   19   20 am   BACKBONE|DICT|INTERRES
    41   19   21 2    
    42   20   84 1    
    43   20   85 1    
    44   22   23 am   BACKBONE|DICT|INTERRES
    45   22   86 1    
    46   23   24 2    
    47   23   25 1    
    48   25   26 1    
    49   25   27 1    
    50   25   87 1    
    51   26   88 1    
    52   26   89 1    
    53   26   90 1    
    54   27   28 am   BACKBONE|DICT|INTERRES
    55   27   91 1    
    56   28   29 2    
    57   28   30 1    
    58   30   31 1    
    59   30   32 1    
    60   30   92 1    
    61   31   93 1    
    62   31   94 1    
    63   31   95 1    
    64   32   33 am   BACKBONE|DICT|INTERRES
    65   32   96 1    
    66   33   34 2    
    67   33   35 1    
    68   35   36 1    
    69   35   37 1    
    70   35   97 1    
    71   36   98 1    
    72   36   99 1    
    73   36  100 1    
    74   37   38 am   BACKBONE|DICT|INTERRES
    75   37  101 1    
    76   38   39 2    
    77   38   40 1    
    78   40   41 1    
    79   40   42 1    
    80   40  102 1    
    81   41  103 1    
    82   41  104 1    
    83   41  105 1    
    84   42   43 am   BACKBONE|DICT|INTERRES
    85   42  106 1    
    86   43   44 2    
    87   43   45 1    
    88   45   46 1    
    89   45   49 1    
    90   45  107 1    
    91   46   47 1    
    92   46  108 1    
    93   46  109 1    
    94   47   48 1    
    95   48  110 1    
    96   48  111 1    
    97   49   50 am   BACKBONE|DICT|INTERRES
    98   49  112 1    
    99   50   51 2    
   100   50   52 1    
   101   52   53 1    
   102   52   54 1    
   103   52  113 1    
   104   53  114 1    
   105   53  115 1    
   106   53  116 1    
   107   54   55 am   BACKBONE|DICT|INTERRES
   108   54  117 1    
   109   55   56 2    
   110   55   57 1    
   111   57   58 1    
   112   57   59 1    
   113   57  118 1    
   114   58  119 1    
   115   58  120 1    
   116   58  121 1    
   117   59   60 am   BACKBONE|DICT|INTERRES
   118   59  122 1    
   119   60   61 2    
   120   60   62 1    
   121   62   63 1    
   122   62   64 1    
   123   62  123 1    
   124   63  124 1    
   125   63  125 1    
   126   63  126 1    
   127   64   65 am   BACKBONE|DICT|INTERRES
   128   64  127 1    
   129   65   66 2    
@<TRIPOS>SUBSTRUCTURE
     1 UNK         1 GROUP             0       ****    0 ROOT    
