@<TRIPOS>MOLECULE
3R135
127   129    1
SMALL
USER_CHARGES


@<TRIPOS>ATOM
      1 CA        -84.4264   25.4102  -71.4600 C.3       0 UNK        -0.1998 
      2 C         -84.0445   26.1980  -72.7039 C.2       0 UNK         0.4909 
      3 O         -84.8544   26.3225  -73.6231 O.2       0 UNK        -0.5240 
      4 N         -82.8159   26.7307  -72.7404 N.am      1 UNK        -0.4739 
      5 CA        -82.2791   27.5276  -73.8546 C.3       1 UNK         0.0864 
      6 C6        -81.0453   28.3621  -73.4278 C.3       11 UNK        -0.0881 
      7 S7        -81.3907   29.4482  -72.0024 S.3       11 UNK        -0.2682 
      8 C8        -80.0974   30.7236  -72.1894 C.3       11 UNK         0.0289 
      9 C9        -78.6730   30.1732  -72.1536 C.ar      11 UNK        -0.0687 
     10 C10       -78.2981   29.1897  -71.2310 C.ar      11 UNK        -0.0823 
     11 C11       -76.9948   28.6849  -71.2104 C.ar      11 UNK        -0.0830 
     12 C12       -76.0522   29.1936  -72.1104 C.ar      11 UNK        -0.1021 
     13 C13       -76.4034   30.1939  -73.0220 C.ar      11 UNK        -0.0753 
     14 C14       -77.7155   30.6754  -73.0402 C.ar      11 UNK        -0.0933 
     15 C15       -75.3858   30.7217  -74.0248 C.3       11 UNK         0.0166 
     16 S16       -74.4498   32.1493  -73.3900 S.3       11 UNK        -0.2615 
     17 C17       -73.1061   31.3214  -72.4768 C.3       11 UNK        -0.0865 
     18 CA        -71.8437   31.0802  -73.3612 C.3       10 UNK         0.0862 
     19 C         -70.6649   32.0168  -72.9866 C.2       10 UNK         0.5551 
     20 N         -70.8269   33.3175  -73.1838 N.am      10 UNK        -0.7319 
     21 O         -69.6171   31.5843  -72.5079 O.2       10 UNK        -0.5018 
     22 N         -71.4403   29.6682  -73.3320 N.am      10 UNK        -0.4509 
     23 C         -71.8029   28.7381  -74.2212 C.2       10 UNK         0.4899 
     24 O         -72.4644   28.9766  -75.2336 O.2       10 UNK        -0.4839 
     25 CA        -71.3363   27.3032  -73.9272 C.3       9 UNK         0.0222 
     26 CB        -71.7413   26.8413  -72.5123 C.3       9 UNK        -0.1966 
     27 N         -71.9215   26.3874  -74.9044 N.am      9 UNK        -0.4218 
     28 C         -71.2941   25.3584  -75.4849 C.2       9 UNK         0.5020 
     29 O         -70.1222   25.0553  -75.2535 O.2       9 UNK        -0.5274 
     30 CA        -72.0986   24.4951  -76.4759 C.3       8 UNK         0.0270 
     31 CB        -72.6254   23.2374  -75.7703 C.3       8 UNK        -0.1976 
     32 N         -73.2226   25.1855  -77.1140 N.am      8 UNK        -0.4313 
     33 C         -73.0980   26.1665  -78.0196 C.2       8 UNK         0.5041 
     34 O         -72.0149   26.6101  -78.4029 O.2       8 UNK        -0.5577 
     35 CA        -74.3925   26.7454  -78.6062 C.3       7 UNK         0.0284 
     36 CB        -74.8821   25.8892  -79.7863 C.3       7 UNK        -0.1958 
     37 N         -75.4413   26.8250  -77.5873 N.am      7 UNK        -0.4454 
     38 C         -75.9038   27.9686  -77.0671 C.2       7 UNK         0.5089 
     39 O         -75.5536   29.0875  -77.4438 O.2       7 UNK        -0.5125 
     40 CA        -76.9516   27.8631  -75.9460 C.3       6 UNK         0.0408 
     41 CB        -78.3682   28.0071  -76.5209 C.3       6 UNK        -0.1791 
     42 N         -76.8734   26.6550  -75.1170 N.am      6 UNK        -0.4762 
     43 C         -75.8384   26.3381  -74.3218 C.2       6 UNK         0.5007 
     44 O         -74.7692   26.9438  -74.3326 O.2       6 UNK        -0.5032 
     45 CA        -75.9970   25.1287  -73.3820 C.3       5 UNK         0.0783 
     46 C46       -76.7407   25.4855  -72.0708 C.3       11 UNK        -0.0857 
     47 S47       -75.6134   26.2515  -70.8568 S.3       11 UNK        -0.2512 
     48 C48       -76.6191   27.6176  -70.1858 C.3       11 UNK         0.0225 
     49 N         -76.6245   24.0179  -74.0956 N.am      5 UNK        -0.4615 
     50 C         -76.0955   22.7915  -74.1924 C.2       4 UNK         0.5053 
     51 O         -75.1617   22.3951  -73.4951 O.2       4 UNK        -0.5105 
     52 CA        -76.6681   21.8412  -75.2644 C.3       4 UNK         0.0263 
     53 CB        -77.5389   20.7578  -74.6073 C.3       4 UNK        -0.1981 
     54 N         -77.4459   22.4952  -76.3216 N.am      4 UNK        -0.4224 
     55 C         -77.0364   23.4896  -77.1236 C.2       3 UNK         0.4895 
     56 O         -75.8987   23.9649  -77.1177 O.2       3 UNK        -0.5091 
     57 CA        -78.1102   24.1301  -78.0221 C.3       3 UNK         0.0250 
     58 CB        -78.1025   23.4728  -79.4107 C.3       3 UNK        -0.1996 
     59 N         -79.4763   24.0971  -77.4741 N.am      3 UNK        -0.4254 
     60 C         -79.8591   24.5439  -76.2675 C.2       2 UNK         0.5004 
     61 O         -79.0806   24.9930  -75.4206 O.2       2 UNK        -0.5226 
     62 CA        -81.3498   24.3988  -75.9273 C.3       2 UNK         0.0269 
     63 CB        -81.6418   22.9761  -75.4220 C.3       2 UNK        -0.1926 
     64 N         -81.7566   25.3543  -74.8964 N.am      2 UNK        -0.4687 
     65 C         -81.9417   26.6675  -75.0934 C.2       1 UNK         0.5165 
     66 O         -81.8578   27.2062  -76.1982 O.2       1 UNK        -0.5079 
     67 H67       -84.6720   24.3828  -71.7272 H         1 UNK         0.0900 
     68 H68       -85.2999   25.8576  -70.9865 H         1 UNK         0.0900 
     69 H69       -83.6192   25.3869  -70.7280 H         1 UNK         0.0900 
     70 H70       -82.2012   26.6245  -71.9457 H         1 UNK         0.2959 
     71 H71       -83.0593   28.2252  -74.1681 H         1 UNK         0.1079 
     72 H72       -80.7117   28.9887  -74.2572 H         1 UNK         0.0837 
     73 H73       -80.2043   27.7129  -73.1744 H         1 UNK         0.0837 
     74 H74       -80.2777   31.2617  -73.1214 H         1 UNK         0.0685 
     75 H75       -80.2078   31.4526  -71.3858 H         1 UNK         0.0685 
     76 H76       -79.0285   28.8124  -70.5287 H         1 UNK         0.1434 
     77 H77       -75.0474   28.7959  -72.1113 H         1 UNK         0.1329 
     78 H78       -77.9907   31.4421  -73.7515 H         1 UNK         0.1335 
     79 H79       -75.8955   31.0250  -74.9407 H         1 UNK         0.0680 
     80 H80       -74.7024   29.9249  -74.3178 H         1 UNK         0.0680 
     81 H81       -73.4825   30.3859  -72.0662 H         1 UNK         0.1032 
     82 H82       -72.8776   31.9264  -71.5969 H         1 UNK         0.1032 
     83 H83       -72.0712   31.3299  -74.3996 H         1 UNK         0.0461 
     84 H84       -70.0791   33.9496  -72.9442 H         1 UNK         0.3453 
     85 H85       -71.6889   33.6782  -73.5637 H         1 UNK         0.3453 
     86 H86       -70.8164   29.4214  -72.5760 H         1 UNK         0.2984 
     87 H87       -70.2479   27.2949  -74.0115 H         1 UNK         0.0554 
     88 H88       -71.4616   25.8018  -72.3404 H         1 UNK         0.0847 
     89 H89       -72.8179   26.9245  -72.3568 H         1 UNK         0.0847 
     90 H90       -71.2517   27.4331  -71.7388 H         1 UNK         0.0847 
     91 H91       -72.8805   26.6057  -75.1592 H         1 UNK         0.3141 
     92 H92       -71.4133   24.1795  -77.2654 H         1 UNK         0.0743 
     93 H93       -73.2720   23.5001  -74.9340 H         1 UNK         0.0784 
     94 H94       -73.1919   22.6000  -76.4498 H         1 UNK         0.0784 
     95 H95       -71.8047   22.6403  -75.3706 H         1 UNK         0.0784 
     96 H96       -74.1492   24.8163  -76.9237 H         1 UNK         0.3213 
     97 H97       -74.1582   27.7401  -78.9916 H         1 UNK         0.0855 
     98 H98       -75.0609   24.8545  -79.4944 H         1 UNK         0.0814 
     99 H99       -74.1412   25.8750  -80.5867 H         1 UNK         0.0814 
    100 H100      -75.8066   26.2845  -80.2073 H         1 UNK         0.0814 
    101 H101      -75.7763   25.9465  -77.2085 H         1 UNK         0.3105 
    102 H102      -76.7887   28.7080  -75.2804 H         1 UNK         0.0547 
    103 H103      -78.4785   28.9521  -77.0542 H         1 UNK         0.0837 
    104 H104      -78.6083   27.2094  -77.2225 H         1 UNK         0.0837 
    105 H105      -79.1175   27.9932  -75.7315 H         1 UNK         0.0837 
    106 H106      -77.7185   26.0869  -75.0886 H         1 UNK         0.3020 
    107 H107      -74.9772   24.8346  -73.1201 H         1 UNK         0.1245 
    108 H108      -77.1339   24.5800  -71.6060 H         1 UNK         0.0781 
    109 H109      -77.6065   26.1230  -72.2608 H         1 UNK         0.0781 
    110 H110      -76.0602   28.0960  -69.3806 H         1 UNK         0.0836 
    111 H111      -77.5123   27.1909  -69.7266 H         1 UNK         0.0836 
    112 H112      -77.4256   24.2490  -74.6744 H         1 UNK         0.3022 
    113 H113      -75.8162   21.3561  -75.7449 H         1 UNK         0.0747 
    114 H114      -77.8679   20.0155  -75.3348 H         1 UNK         0.0793 
    115 H115      -76.9835   20.2246  -73.8342 H         1 UNK         0.0793 
    116 H116      -78.4252   21.1847  -74.1358 H         1 UNK         0.0793 
    117 H117      -78.4067   22.1995  -76.4094 H         1 UNK         0.3047 
    118 H118      -77.8378   25.1787  -78.1468 H         1 UNK         0.0822 
    119 H119      -78.7626   23.9971  -80.1021 H         1 UNK         0.0807 
    120 H120      -78.4207   22.4304  -79.3666 H         1 UNK         0.0807 
    121 H121      -77.1035   23.4886  -79.8485 H         1 UNK         0.0807 
    122 H122      -80.1858   23.7250  -78.0899 H         1 UNK         0.2946 
    123 H123      -81.9369   24.5882  -76.8290 H         1 UNK         0.1144 
    124 H124      -81.3970   22.2298  -76.1790 H         1 UNK         0.0793 
    125 H125      -82.6973   22.8511  -75.1792 H         1 UNK         0.0793 
    126 H126      -81.0622   22.7372  -74.5290 H         1 UNK         0.0793 
    127 H127      -81.8180   25.0061  -73.9512 H         1 UNK         0.2896 
@<TRIPOS>BOND
     1    1    2 1    
     2    1   67 1    
     3    1   68 1    
     4    1   69 1    
     5    2    3 2    
     6    2    4 am   BACKBONE|DICT|INTERRES
     7    4    5 1    
     8    4   70 1    
     9    5    6 1    
    10    5   65 1    
    11    5   71 1    
    12    6    7 1    
    13    6   72 1    
    14    6   73 1    
    15    7    8 1    
    16    8    9 1    
    17    8   74 1    
    18    8   75 1    
    19    9   10 ar   
    20    9   14 ar   
    21   10   11 ar   
    22   10   76 1    
    23   11   12 ar   
    24   11   48 1    
    25   12   13 ar   
    26   12   77 1    
    27   13   14 ar   
    28   13   15 1    
    29   14   78 1    
    30   15   16 1    
    31   15   79 1    
    32   15   80 1    
    33   16   17 1    
    34   17   18 1    
    35   17   81 1    
    36   17   82 1    
    37   18   19 1    
    38   18   22 1    
    39   18   83 1    
    40   19   20 am   BACKBONE|DICT|INTERRES
    41   19   21 2    
    42   20   84 1    
    43   20   85 1    
    44   22   23 am   BACKBONE|DICT|INTERRES
    45   22   86 1    
    46   23   24 2    
    47   23   25 1    
    48   25   26 1    
    49   25   27 1    
    50   25   87 1    
    51   26   88 1    
    52   26   89 1    
    53   26   90 1    
    54   27   28 am   BACKBONE|DICT|INTERRES
    55   27   91 1    
    56   28   29 2    
    57   28   30 1    
    58   30   31 1    
    59   30   32 1    
    60   30   92 1    
    61   31   93 1    
    62   31   94 1    
    63   31   95 1    
    64   32   33 am   BACKBONE|DICT|INTERRES
    65   32   96 1    
    66   33   34 2    
    67   33   35 1    
    68   35   36 1    
    69   35   37 1    
    70   35   97 1    
    71   36   98 1    
    72   36   99 1    
    73   36  100 1    
    74   37   38 am   BACKBONE|DICT|INTERRES
    75   37  101 1    
    76   38   39 2    
    77   38   40 1    
    78   40   41 1    
    79   40   42 1    
    80   40  102 1    
    81   41  103 1    
    82   41  104 1    
    83   41  105 1    
    84   42   43 am   BACKBONE|DICT|INTERRES
    85   42  106 1    
    86   43   44 2    
    87   43   45 1    
    88   45   46 1    
    89   45   49 1    
    90   45  107 1    
    91   46   47 1    
    92   46  108 1    
    93   46  109 1    
    94   47   48 1    
    95   48  110 1    
    96   48  111 1    
    97   49   50 am   BACKBONE|DICT|INTERRES
    98   49  112 1    
    99   50   51 2    
   100   50   52 1    
   101   52   53 1    
   102   52   54 1    
   103   52  113 1    
   104   53  114 1    
   105   53  115 1    
   106   53  116 1    
   107   54   55 am   BACKBONE|DICT|INTERRES
   108   54  117 1    
   109   55   56 2    
   110   55   57 1    
   111   57   58 1    
   112   57   59 1    
   113   57  118 1    
   114   58  119 1    
   115   58  120 1    
   116   58  121 1    
   117   59   60 am   BACKBONE|DICT|INTERRES
   118   59  122 1    
   119   60   61 2    
   120   60   62 1    
   121   62   63 1    
   122   62   64 1    
   123   62  123 1    
   124   63  124 1    
   125   63  125 1    
   126   63  126 1    
   127   64   65 am   BACKBONE|DICT|INTERRES
   128   64  127 1    
   129   65   66 2    
@<TRIPOS>SUBSTRUCTURE
     1 UNK         1 GROUP             0       ****    0 ROOT    
