@<TRIPOS>MOLECULE
3R135
127   129    1
SMALL
USER_CHARGES


@<TRIPOS>ATOM
      1 CA        -80.3304   30.7128  -77.3021 C.3       0 UNK        -0.1998 
      2 C         -80.2608   30.1943  -75.8738 C.2       0 UNK         0.4909 
      3 O         -79.6005   30.8034  -75.0342 O.2       0 UNK        -0.5240 
      4 N         -80.9339   29.0741  -75.5971 N.am      1 UNK        -0.4739 
      5 CA        -80.9525   28.3767  -74.3133 C.3       1 UNK         0.0864 
      6 C6        -81.9304   29.0550  -73.3184 C.3       11 UNK        -0.0881 
      7 S7        -81.8678   28.3874  -71.6206 S.3       11 UNK        -0.2682 
      8 C8        -80.7156   29.5331  -70.7969 C.3       11 UNK         0.0289 
      9 C9        -79.2680   29.1639  -71.0812 C.ar      11 UNK        -0.0687 
     10 C10       -78.6936   28.0649  -70.4356 C.ar      11 UNK        -0.0823 
     11 C11       -77.3712   27.6952  -70.6952 C.ar      11 UNK        -0.0830 
     12 C12       -76.6260   28.4422  -71.6131 C.ar      11 UNK        -0.1021 
     13 C13       -77.1776   29.5560  -72.2492 C.ar      11 UNK        -0.0753 
     14 C14       -78.5014   29.9144  -71.9781 C.ar      11 UNK        -0.0933 
     15 C15       -76.3506   30.3464  -73.2531 C.3       11 UNK         0.0166 
     16 S16       -75.4259   31.7225  -72.4861 S.3       11 UNK        -0.2615 
     17 C17       -74.1095   30.8810  -71.5291 C.3       11 UNK        -0.0865 
     18 CA        -72.7659   30.7251  -72.2928 C.3       10 UNK         0.0862 
     19 C         -71.6869   30.0592  -71.3885 C.2       10 UNK         0.5551 
     20 N         -71.1645   28.8840  -71.7190 N.am      10 UNK        -0.7319 
     21 O         -71.3141   30.6276  -70.3651 O.2       10 UNK        -0.5018 
     22 N         -72.9551   30.0728  -73.5952 N.am      10 UNK        -0.4509 
     23 C         -72.1152   30.1524  -74.6311 C.2       10 UNK         0.4899 
     24 O         -71.0445   30.7628  -74.6204 O.2       10 UNK        -0.4839 
     25 CA        -72.5848   29.4400  -75.9086 C.3       9 UNK         0.0222 
     26 CB        -72.3598   30.3198  -77.1505 C.3       9 UNK        -0.1966 
     27 N         -71.9966   28.1202  -76.1510 N.am      9 UNK        -0.4218 
     28 C         -71.7471   27.1262  -75.2848 C.2       9 UNK         0.5020 
     29 O         -71.7514   27.2431  -74.0578 O.2       9 UNK        -0.5274 
     30 CA        -71.5017   25.7415  -75.9245 C.3       8 UNK         0.0270 
     31 CB        -71.3284   24.6258  -74.8767 C.3       8 UNK        -0.1976 
     32 N         -72.6089   25.3793  -76.8175 N.am      8 UNK        -0.4313 
     33 C         -72.7874   25.8478  -78.0605 C.2       8 UNK         0.5041 
     34 O         -71.9597   26.5467  -78.6469 O.2       8 UNK        -0.5577 
     35 CA        -74.1543   25.5873  -78.7087 C.3       7 UNK         0.0284 
     36 CB        -74.2778   24.1391  -79.2116 C.3       7 UNK        -0.1958 
     37 N         -75.2409   25.9027  -77.7765 N.am      7 UNK        -0.4454 
     38 C         -75.6378   27.1482  -77.4701 C.2       7 UNK         0.5089 
     39 O         -75.1780   28.1616  -77.9955 O.2       7 UNK        -0.5125 
     40 CA        -76.7460   27.2937  -76.4112 C.3       6 UNK         0.0408 
     41 CB        -78.1193   27.3034  -77.0973 C.3       6 UNK        -0.1791 
     42 N         -76.7189   26.2297  -75.4052 N.am      6 UNK        -0.4762 
     43 C         -75.7899   26.1122  -74.4440 C.2       6 UNK         0.5007 
     44 O         -74.9255   26.9626  -74.2382 O.2       6 UNK        -0.5032 
     45 CA        -75.7948   24.8060  -73.6139 C.3       5 UNK         0.0783 
     46 C46       -76.5849   24.9386  -72.2885 C.3       11 UNK        -0.0857 
     47 S47       -75.5471   25.5518  -70.9243 S.3       11 UNK        -0.2512 
     48 C48       -76.7665   26.5031  -69.9557 C.3       11 UNK         0.0225 
     49 N         -76.2750   23.6540  -74.3820 N.am      5 UNK        -0.4615 
     50 C         -75.6376   23.0991  -75.4200 C.2       4 UNK         0.5053 
     51 O         -74.5617   23.5053  -75.8562 O.2       4 UNK        -0.5105 
     52 CA        -76.3645   21.9465  -76.1196 C.3       4 UNK         0.0263 
     53 CB        -76.2794   20.6572  -75.2785 C.3       4 UNK        -0.1981 
     54 N         -77.7486   22.3539  -76.3565 N.am      4 UNK        -0.4224 
     55 C         -78.6924   21.7244  -77.0581 C.2       3 UNK         0.4895 
     56 O         -78.5321   20.6232  -77.5873 O.2       3 UNK        -0.5091 
     57 CA        -80.0389   22.4735  -77.2054 C.3       3 UNK         0.0250 
     58 CB        -81.1222   21.6078  -77.8774 C.3       3 UNK        -0.1996 
     59 N         -80.5860   23.0223  -75.9532 N.am      3 UNK        -0.4254 
     60 C         -80.1062   24.0661  -75.2625 C.2       2 UNK         0.5004 
     61 O         -79.0409   24.6295  -75.5295 O.2       2 UNK        -0.5226 
     62 CA        -80.9170   24.5286  -74.0396 C.3       2 UNK         0.0269 
     63 CB        -80.4535   23.7844  -72.7775 C.3       2 UNK        -0.1926 
     64 N         -80.7804   25.9723  -73.8195 N.am      2 UNK        -0.4687 
     65 C         -81.3080   26.9092  -74.6184 C.2       1 UNK         0.5165 
     66 O         -82.0441   26.6523  -75.5767 O.2       1 UNK        -0.5079 
     67 H67       -80.7597   31.7144  -77.3165 H         1 UNK         0.0900 
     68 H68       -80.9403   30.0723  -77.9397 H         1 UNK         0.0900 
     69 H69       -79.3295   30.7641  -77.7306 H         1 UNK         0.0900 
     70 H70       -81.4501   28.5872  -76.3208 H         1 UNK         0.2959 
     71 H71       -79.9409   28.3981  -73.9022 H         1 UNK         0.1079 
     72 H72       -82.9565   28.9683  -73.6806 H         1 UNK         0.0837 
     73 H73       -81.7293   30.1262  -73.2727 H         1 UNK         0.0837 
     74 H74       -80.9266   30.5611  -71.0953 H         1 UNK         0.0685 
     75 H75       -80.8900   29.4895  -69.7208 H         1 UNK         0.0685 
     76 H76       -79.2848   27.4942  -69.7320 H         1 UNK         0.1434 
     77 H77       -75.6092   28.1548  -71.8392 H         1 UNK         0.1329 
     78 H78       -78.9378   30.7687  -72.4774 H         1 UNK         0.1335 
     79 H79       -75.6686   29.6816  -73.7827 H         1 UNK         0.0680 
     80 H80       -77.0093   30.7604  -74.0180 H         1 UNK         0.0680 
     81 H81       -73.9483   31.4772  -70.6289 H         1 UNK         0.1032 
     82 H82       -74.4586   29.9169  -71.1675 H         1 UNK         0.1032 
     83 H83       -72.3975   31.7324  -72.4971 H         1 UNK         0.0461 
     84 H84       -70.4661   28.4694  -71.1239 H         1 UNK         0.3453 
     85 H85       -71.4591   28.4000  -72.5642 H         1 UNK         0.3453 
     86 H86       -73.7659   29.4778  -73.6795 H         1 UNK         0.2984 
     87 H87       -73.6612   29.2781  -75.8216 H         1 UNK         0.0554 
     88 H88       -72.8290   29.8859  -78.0341 H         1 UNK         0.0847 
     89 H89       -71.2984   30.4523  -77.3641 H         1 UNK         0.0847 
     90 H90       -72.7918   31.3118  -77.0115 H         1 UNK         0.0847 
     91 H91       -71.9308   27.8569  -77.1296 H         1 UNK         0.3141 
     92 H92       -70.5787   25.8057  -76.5046 H         1 UNK         0.0743 
     93 H93       -72.2180   24.5181  -74.2544 H         1 UNK         0.0784 
     94 H94       -71.1338   23.6635  -75.3505 H         1 UNK         0.0784 
     95 H95       -70.4880   24.8375  -74.2143 H         1 UNK         0.0784 
     96 H96       -73.3432   24.8013  -76.4122 H         1 UNK         0.3213 
     97 H97       -74.2439   26.2475  -79.5746 H         1 UNK         0.0855 
     98 H98       -74.1503   23.4092  -78.4128 H         1 UNK         0.0814 
     99 H99       -73.5164   23.9276  -79.9636 H         1 UNK         0.0814 
    100 H100      -75.2479   23.9616  -79.6765 H         1 UNK         0.0814 
    101 H101      -75.6450   25.1326  -77.2650 H         1 UNK         0.3105 
    102 H102      -76.6086   28.2506  -75.9027 H         1 UNK         0.0547 
    103 H103      -78.2937   26.3914  -77.6698 H         1 UNK         0.0837 
    104 H104      -78.9203   27.3893  -76.3671 H         1 UNK         0.0837 
    105 H105      -78.2083   28.1455  -77.7847 H         1 UNK         0.0837 
    106 H106      -77.4642   25.5381  -75.4599 H         1 UNK         0.3020 
    107 H107      -74.7493   24.5948  -73.3751 H         1 UNK         0.1245 
    108 H108      -77.4721   25.5613  -72.4177 H         1 UNK         0.0781 
    109 H109      -76.9543   23.9650  -71.9622 H         1 UNK         0.0781 
    110 H110      -77.5525   25.8198  -69.6297 H         1 UNK         0.0836 
    111 H111      -76.2810   26.8695  -69.0505 H         1 UNK         0.0836 
    112 H112      -77.1511   23.2535  -74.0825 H         1 UNK         0.3022 
    113 H113      -75.8838   21.7771  -77.0852 H         1 UNK         0.0747 
    114 H114      -76.6882   19.8011  -75.8147 H         1 UNK         0.0793 
    115 H115      -75.2427   20.4164  -75.0385 H         1 UNK         0.0793 
    116 H116      -76.8212   20.7494  -74.3366 H         1 UNK         0.0793 
    117 H117      -78.0103   23.2735  -76.0036 H         1 UNK         0.3047 
    118 H118      -79.8411   23.3174  -77.8703 H         1 UNK         0.0822 
    119 H119      -82.0380   22.1750  -78.0450 H         1 UNK         0.0807 
    120 H120      -81.3721   20.7349  -77.2727 H         1 UNK         0.0807 
    121 H121      -80.7896   21.2461  -78.8516 H         1 UNK         0.0807 
    122 H122      -81.4350   22.5851  -75.6237 H         1 UNK         0.2946 
    123 H123      -81.9725   24.3070  -74.2145 H         1 UNK         0.1144 
    124 H124      -81.0400   24.0788  -71.9068 H         1 UNK         0.0793 
    125 H125      -79.4048   23.9783  -72.5545 H         1 UNK         0.0793 
    126 H126      -80.5681   22.7056  -72.8927 H         1 UNK         0.0793 
    127 H127      -80.1914   26.2613  -73.0523 H         1 UNK         0.2896 
@<TRIPOS>BOND
     1    1    2 1    
     2    1   67 1    
     3    1   68 1    
     4    1   69 1    
     5    2    3 2    
     6    2    4 am   BACKBONE|DICT|INTERRES
     7    4    5 1    
     8    4   70 1    
     9    5    6 1    
    10    5   65 1    
    11    5   71 1    
    12    6    7 1    
    13    6   72 1    
    14    6   73 1    
    15    7    8 1    
    16    8    9 1    
    17    8   74 1    
    18    8   75 1    
    19    9   10 ar   
    20    9   14 ar   
    21   10   11 ar   
    22   10   76 1    
    23   11   12 ar   
    24   11   48 1    
    25   12   13 ar   
    26   12   77 1    
    27   13   14 ar   
    28   13   15 1    
    29   14   78 1    
    30   15   16 1    
    31   15   79 1    
    32   15   80 1    
    33   16   17 1    
    34   17   18 1    
    35   17   81 1    
    36   17   82 1    
    37   18   19 1    
    38   18   22 1    
    39   18   83 1    
    40   19   20 am   BACKBONE|DICT|INTERRES
    41   19   21 2    
    42   20   84 1    
    43   20   85 1    
    44   22   23 am   BACKBONE|DICT|INTERRES
    45   22   86 1    
    46   23   24 2    
    47   23   25 1    
    48   25   26 1    
    49   25   27 1    
    50   25   87 1    
    51   26   88 1    
    52   26   89 1    
    53   26   90 1    
    54   27   28 am   BACKBONE|DICT|INTERRES
    55   27   91 1    
    56   28   29 2    
    57   28   30 1    
    58   30   31 1    
    59   30   32 1    
    60   30   92 1    
    61   31   93 1    
    62   31   94 1    
    63   31   95 1    
    64   32   33 am   BACKBONE|DICT|INTERRES
    65   32   96 1    
    66   33   34 2    
    67   33   35 1    
    68   35   36 1    
    69   35   37 1    
    70   35   97 1    
    71   36   98 1    
    72   36   99 1    
    73   36  100 1    
    74   37   38 am   BACKBONE|DICT|INTERRES
    75   37  101 1    
    76   38   39 2    
    77   38   40 1    
    78   40   41 1    
    79   40   42 1    
    80   40  102 1    
    81   41  103 1    
    82   41  104 1    
    83   41  105 1    
    84   42   43 am   BACKBONE|DICT|INTERRES
    85   42  106 1    
    86   43   44 2    
    87   43   45 1    
    88   45   46 1    
    89   45   49 1    
    90   45  107 1    
    91   46   47 1    
    92   46  108 1    
    93   46  109 1    
    94   47   48 1    
    95   48  110 1    
    96   48  111 1    
    97   49   50 am   BACKBONE|DICT|INTERRES
    98   49  112 1    
    99   50   51 2    
   100   50   52 1    
   101   52   53 1    
   102   52   54 1    
   103   52  113 1    
   104   53  114 1    
   105   53  115 1    
   106   53  116 1    
   107   54   55 am   BACKBONE|DICT|INTERRES
   108   54  117 1    
   109   55   56 2    
   110   55   57 1    
   111   57   58 1    
   112   57   59 1    
   113   57  118 1    
   114   58  119 1    
   115   58  120 1    
   116   58  121 1    
   117   59   60 am   BACKBONE|DICT|INTERRES
   118   59  122 1    
   119   60   61 2    
   120   60   62 1    
   121   62   63 1    
   122   62   64 1    
   123   62  123 1    
   124   63  124 1    
   125   63  125 1    
   126   63  126 1    
   127   64   65 am   BACKBONE|DICT|INTERRES
   128   64  127 1    
   129   65   66 2    
@<TRIPOS>SUBSTRUCTURE
     1 UNK         1 GROUP             0       ****    0 ROOT    
