@<TRIPOS>MOLECULE
3R135
127   129    1
SMALL
USER_CHARGES


@<TRIPOS>ATOM
      1 CA        -78.8522   21.5340  -70.0429 C.3       0 UNK        -0.1998 
      2 C         -80.1439   22.1782  -70.5238 C.2       0 UNK         0.4909 
      3 O         -81.1018   21.4701  -70.8383 O.2       0 UNK        -0.5240 
      4 N         -80.1790   23.5152  -70.5725 N.am      1 UNK        -0.4739 
      5 CA        -81.2948   24.3113  -71.0941 C.3       1 UNK         0.0864 
      6 C6        -81.3362   25.7228  -70.4495 C.3       11 UNK        -0.0881 
      7 S7        -79.7880   26.6778  -70.6004 S.3       11 UNK        -0.2682 
      8 C8        -80.2324   27.8313  -71.9432 C.3       11 UNK         0.0289 
      9 C9        -79.1587   28.8457  -72.3412 C.ar      11 UNK        -0.0687 
     10 C10       -79.4750   29.7578  -73.3511 C.ar      11 UNK        -0.0823 
     11 C11       -78.5489   30.7146  -73.7748 C.ar      11 UNK        -0.0830 
     12 C12       -77.2914   30.7693  -73.1689 C.ar      11 UNK        -0.1021 
     13 C13       -76.9566   29.8667  -72.1561 C.ar      11 UNK        -0.0753 
     14 C14       -77.8887   28.9067  -71.7492 C.ar      11 UNK        -0.0933 
     15 C15       -75.5960   29.9423  -71.4832 C.3       11 UNK         0.0166 
     16 S16       -74.4038   28.7999  -72.2449 S.3       11 UNK        -0.2615 
     17 C17       -72.9227   29.1756  -71.2463 C.3       11 UNK        -0.0865 
     18 CA        -71.9141   30.0829  -71.9989 C.3       10 UNK         0.0862 
     19 C         -70.8380   30.6455  -71.0228 C.2       10 UNK         0.5551 
     20 N         -69.5591   30.3246  -71.1789 N.am      10 UNK        -0.7319 
     21 O         -71.1733   31.3939  -70.1080 O.2       10 UNK        -0.5018 
     22 N         -71.3680   29.4063  -73.1876 N.am      10 UNK        -0.4509 
     23 C         -70.8011   30.0208  -74.2345 C.2       10 UNK         0.4899 
     24 O         -70.7219   31.2445  -74.3468 O.2       10 UNK        -0.4839 
     25 CA        -70.1915   29.1302  -75.3353 C.3       9 UNK         0.0222 
     26 CB        -68.6560   29.2211  -75.3077 C.3       9 UNK        -0.1966 
     27 N         -70.5858   27.7210  -75.2290 N.am      9 UNK        -0.4218 
     28 C         -71.7470   27.2231  -75.6723 C.2       9 UNK         0.5020 
     29 O         -72.5978   27.8891  -76.2654 O.2       9 UNK        -0.5274 
     30 CA        -71.9887   25.7361  -75.3816 C.3       8 UNK         0.0270 
     31 CB        -72.4057   25.5253  -73.9145 C.3       8 UNK        -0.1976 
     32 N         -73.0461   25.2308  -76.2548 N.am      8 UNK        -0.4313 
     33 C         -72.9461   24.1505  -77.0384 C.2       8 UNK         0.5041 
     34 O         -71.9557   23.4175  -77.0660 O.2       8 UNK        -0.5577 
     35 CA        -74.1376   23.8076  -77.9503 C.3       7 UNK         0.0284 
     36 CB        -75.0128   22.7143  -77.3166 C.3       7 UNK        -0.1958 
     37 N         -74.9746   24.9557  -78.3058 N.am      7 UNK        -0.4454 
     38 C         -74.6148   25.9164  -79.1693 C.2       7 UNK         0.5089 
     39 O         -73.5122   25.9685  -79.7153 O.2       7 UNK        -0.5125 
     40 CA        -75.6669   26.9840  -79.5039 C.3       6 UNK         0.0408 
     41 CB        -76.6262   26.4653  -80.5875 C.3       6 UNK        -0.1791 
     42 N         -76.4394   27.3607  -78.3211 N.am      6 UNK        -0.4762 
     43 C         -76.2481   28.4777  -77.6043 C.2       6 UNK         0.5007 
     44 O         -75.4325   29.3505  -77.9043 O.2       6 UNK        -0.5032 
     45 CA        -77.1317   28.6627  -76.3482 C.3       5 UNK         0.0783 
     46 C46       -78.3775   29.5304  -76.6796 C.3       11 UNK        -0.0857 
     47 S47       -78.0331   31.3085  -76.4473 S.3       11 UNK        -0.2512 
     48 C48       -78.9121   31.6809  -74.8942 C.3       11 UNK         0.0225 
     49 N         -77.5082   27.3961  -75.7080 N.am      5 UNK        -0.4615 
     50 C         -76.6417   26.5029  -75.2062 C.2       4 UNK         0.5053 
     51 O         -75.4243   26.6634  -75.1944 O.2       4 UNK        -0.5105 
     52 CA        -77.2120   25.1658  -74.6977 C.3       4 UNK         0.0263 
     53 CB        -77.4540   25.2374  -73.1844 C.3       4 UNK        -0.1981 
     54 N         -78.4382   24.7218  -75.3749 N.am      4 UNK        -0.4224 
     55 C         -78.6025   24.6141  -76.7039 C.2       3 UNK         0.4895 
     56 O         -77.7045   24.8423  -77.5165 O.2       3 UNK        -0.5091 
     57 CA        -79.9874   24.2179  -77.2462 C.3       3 UNK         0.0250 
     58 CB        -79.9199   22.8370  -77.9191 C.3       3 UNK        -0.1996 
     59 N         -81.0716   24.2128  -76.2611 N.am      3 UNK        -0.4254 
     60 C         -81.5570   25.2705  -75.5941 C.2       2 UNK         0.5004 
     61 O         -81.1126   26.4150  -75.6981 O.2       2 UNK        -0.5226 
     62 CA        -82.7328   24.9942  -74.6325 C.3       2 UNK         0.0269 
     63 CB        -83.5246   23.7141  -74.9837 C.3       2 UNK        -0.1926 
     64 N         -82.3598   24.9551  -73.2100 N.am      2 UNK        -0.4687 
     65 C         -81.3125   24.3336  -72.6423 C.2       1 UNK         0.5165 
     66 O         -80.4093   23.7873  -73.2825 O.2       1 UNK        -0.5079 
     67 H67       -79.0419   20.9252  -69.1593 H         1 UNK         0.0900 
     68 H68       -78.4435   20.8895  -70.8207 H         1 UNK         0.0900 
     69 H69       -78.0969   22.2771  -69.7873 H         1 UNK         0.0900 
     70 H70       -79.3566   24.0483  -70.3274 H         1 UNK         0.2959 
     71 H71       -82.2187   23.8061  -70.8022 H         1 UNK         0.1079 
     72 H72       -82.1754   26.3097  -70.8261 H         1 UNK         0.0837 
     73 H73       -81.5341   25.6116  -69.3821 H         1 UNK         0.0837 
     74 H74       -80.4995   27.2503  -72.8271 H         1 UNK         0.0685 
     75 H75       -81.1283   28.3776  -71.6443 H         1 UNK         0.0685 
     76 H76       -80.4500   29.7149  -73.8180 H         1 UNK         0.1434 
     77 H77       -76.5716   31.5088  -73.4930 H         1 UNK         0.1329 
     78 H78       -77.6095   28.2158  -70.9673 H         1 UNK         0.1335 
     79 H79       -75.2050   30.9597  -71.5381 H         1 UNK         0.0680 
     80 H80       -75.6973   29.7070  -70.4225 H         1 UNK         0.0680 
     81 H81       -73.2396   29.6384  -70.3094 H         1 UNK         0.1032 
     82 H82       -72.4485   28.2347  -70.9617 H         1 UNK         0.1032 
     83 H83       -72.4662   30.9567  -72.3510 H         1 UNK         0.0461 
     84 H84       -68.8741   30.6996  -70.5416 H         1 UNK         0.3453 
     85 H85       -69.2732   29.7145  -71.9268 H         1 UNK         0.3453 
     86 H86       -71.4090   28.3994  -73.1840 H         1 UNK         0.2984 
     87 H87       -70.5342   29.5210  -76.2959 H         1 UNK         0.0554 
     88 H88       -68.3230   30.2543  -75.4176 H         1 UNK         0.0847 
     89 H89       -68.2101   28.6531  -76.1245 H         1 UNK         0.0847 
     90 H90       -68.2425   28.8446  -74.3713 H         1 UNK         0.0847 
     91 H91       -69.9353   27.1020  -74.7653 H         1 UNK         0.3141 
     92 H92       -71.0535   25.2031  -75.5652 H         1 UNK         0.0743 
     93 H93       -73.2978   26.0999  -73.6614 H         1 UNK         0.0784 
     94 H94       -72.6183   24.4756  -73.7117 H         1 UNK         0.0784 
     95 H95       -71.6151   25.8318  -73.2290 H         1 UNK         0.0784 
     96 H96       -73.8780   25.8142  -76.2928 H         1 UNK         0.3213 
     97 H97       -73.7232   23.4031  -78.8766 H         1 UNK         0.0855 
     98 H98       -75.4464   23.0394  -76.3725 H         1 UNK         0.0814 
     99 H99       -74.4271   21.8170  -77.1123 H         1 UNK         0.0814 
    100 H100      -75.8295   22.4245  -77.9781 H         1 UNK         0.0814 
    101 H101      -75.9244   24.9593  -77.9402 H         1 UNK         0.3105 
    102 H102      -75.1440   27.8529  -79.9089 H         1 UNK         0.0547 
    103 H103      -76.0797   26.1760  -81.4862 H         1 UNK         0.0837 
    104 H104      -77.1865   25.5918  -80.2508 H         1 UNK         0.0837 
    105 H105      -77.3448   27.2314  -80.8786 H         1 UNK         0.0837 
    106 H106      -77.1015   26.6716  -77.9788 H         1 UNK         0.3020 
    107 H107      -76.5163   29.1853  -75.6113 H         1 UNK         0.1245 
    108 H108      -79.2266   29.2531  -76.0550 H         1 UNK         0.0781 
    109 H109      -78.7258   29.3695  -77.7021 H         1 UNK         0.0781 
    110 H110      -79.9865   31.6668  -75.0846 H         1 UNK         0.0836 
    111 H111      -78.6722   32.6995  -74.5861 H         1 UNK         0.0836 
    112 H112      -78.4938   27.1744  -75.6819 H         1 UNK         0.3022 
    113 H113      -76.4517   24.4056  -74.8755 H         1 UNK         0.0747 
    114 H114      -77.7274   24.2646  -72.7758 H         1 UNK         0.0793 
    115 H115      -76.5601   25.5736  -72.6566 H         1 UNK         0.0793 
    116 H116      -78.2532   25.9383  -72.9506 H         1 UNK         0.0793 
    117 H117      -79.2205   24.4800  -74.7731 H         1 UNK         0.3047 
    118 H118      -80.2448   24.9561  -78.0084 H         1 UNK         0.0822 
    119 H119      -80.8643   22.5818  -78.4002 H         1 UNK         0.0807 
    120 H120      -79.6831   22.0505  -77.2013 H         1 UNK         0.0807 
    121 H121      -79.1503   22.8139  -78.6923 H         1 UNK         0.0807 
    122 H122      -81.4835   23.3127  -76.0619 H         1 UNK         0.2946 
    123 H123      -83.4120   25.8401  -74.7535 H         1 UNK         0.1144 
    124 H124      -84.4427   23.6528  -74.3990 H         1 UNK         0.0793 
    125 H125      -82.9527   22.8067  -74.7851 H         1 UNK         0.0793 
    126 H126      -83.8190   23.7033  -76.0344 H         1 UNK         0.0793 
    127 H127      -83.0221   25.4056  -72.5941 H         1 UNK         0.2896 
@<TRIPOS>BOND
     1    1    2 1    
     2    1   67 1    
     3    1   68 1    
     4    1   69 1    
     5    2    3 2    
     6    2    4 am   BACKBONE|DICT|INTERRES
     7    4    5 1    
     8    4   70 1    
     9    5    6 1    
    10    5   65 1    
    11    5   71 1    
    12    6    7 1    
    13    6   72 1    
    14    6   73 1    
    15    7    8 1    
    16    8    9 1    
    17    8   74 1    
    18    8   75 1    
    19    9   10 ar   
    20    9   14 ar   
    21   10   11 ar   
    22   10   76 1    
    23   11   12 ar   
    24   11   48 1    
    25   12   13 ar   
    26   12   77 1    
    27   13   14 ar   
    28   13   15 1    
    29   14   78 1    
    30   15   16 1    
    31   15   79 1    
    32   15   80 1    
    33   16   17 1    
    34   17   18 1    
    35   17   81 1    
    36   17   82 1    
    37   18   19 1    
    38   18   22 1    
    39   18   83 1    
    40   19   20 am   BACKBONE|DICT|INTERRES
    41   19   21 2    
    42   20   84 1    
    43   20   85 1    
    44   22   23 am   BACKBONE|DICT|INTERRES
    45   22   86 1    
    46   23   24 2    
    47   23   25 1    
    48   25   26 1    
    49   25   27 1    
    50   25   87 1    
    51   26   88 1    
    52   26   89 1    
    53   26   90 1    
    54   27   28 am   BACKBONE|DICT|INTERRES
    55   27   91 1    
    56   28   29 2    
    57   28   30 1    
    58   30   31 1    
    59   30   32 1    
    60   30   92 1    
    61   31   93 1    
    62   31   94 1    
    63   31   95 1    
    64   32   33 am   BACKBONE|DICT|INTERRES
    65   32   96 1    
    66   33   34 2    
    67   33   35 1    
    68   35   36 1    
    69   35   37 1    
    70   35   97 1    
    71   36   98 1    
    72   36   99 1    
    73   36  100 1    
    74   37   38 am   BACKBONE|DICT|INTERRES
    75   37  101 1    
    76   38   39 2    
    77   38   40 1    
    78   40   41 1    
    79   40   42 1    
    80   40  102 1    
    81   41  103 1    
    82   41  104 1    
    83   41  105 1    
    84   42   43 am   BACKBONE|DICT|INTERRES
    85   42  106 1    
    86   43   44 2    
    87   43   45 1    
    88   45   46 1    
    89   45   49 1    
    90   45  107 1    
    91   46   47 1    
    92   46  108 1    
    93   46  109 1    
    94   47   48 1    
    95   48  110 1    
    96   48  111 1    
    97   49   50 am   BACKBONE|DICT|INTERRES
    98   49  112 1    
    99   50   51 2    
   100   50   52 1    
   101   52   53 1    
   102   52   54 1    
   103   52  113 1    
   104   53  114 1    
   105   53  115 1    
   106   53  116 1    
   107   54   55 am   BACKBONE|DICT|INTERRES
   108   54  117 1    
   109   55   56 2    
   110   55   57 1    
   111   57   58 1    
   112   57   59 1    
   113   57  118 1    
   114   58  119 1    
   115   58  120 1    
   116   58  121 1    
   117   59   60 am   BACKBONE|DICT|INTERRES
   118   59  122 1    
   119   60   61 2    
   120   60   62 1    
   121   62   63 1    
   122   62   64 1    
   123   62  123 1    
   124   63  124 1    
   125   63  125 1    
   126   63  126 1    
   127   64   65 am   BACKBONE|DICT|INTERRES
   128   64  127 1    
   129   65   66 2    
@<TRIPOS>SUBSTRUCTURE
     1 UNK         1 GROUP             0       ****    0 ROOT    
