@<TRIPOS>MOLECULE
3R135
127   129    1
SMALL
USER_CHARGES


@<TRIPOS>ATOM
      1 CA        -84.4487   28.2227  -71.7598 C.3       0 UNK        -0.1998 
      2 C         -83.9542   28.2269  -73.1984 C.2       0 UNK         0.4909 
      3 O         -84.7526   28.0656  -74.1218 O.2       0 UNK        -0.5240 
      4 N         -82.6421   28.4117  -73.3944 N.am      1 UNK        -0.4739 
      5 CA        -81.9863   28.4346  -74.7091 C.3       1 UNK         0.0864 
      6 C6        -80.5776   29.0720  -74.6449 C.3       11 UNK        -0.0881 
      7 S7        -80.5806   30.8164  -74.1042 S.3       11 UNK        -0.2682 
      8 C8        -80.3144   30.7093  -72.3023 C.3       11 UNK         0.0289 
      9 C9        -79.0643   29.9249  -71.9267 C.ar      11 UNK        -0.0687 
     10 C10       -79.1768   28.6579  -71.3482 C.ar      11 UNK        -0.0823 
     11 C11       -78.0372   27.9362  -70.9837 C.ar      11 UNK        -0.0830 
     12 C12       -76.7703   28.4901  -71.2040 C.ar      11 UNK        -0.1021 
     13 C13       -76.6461   29.7665  -71.7672 C.ar      11 UNK        -0.0753 
     14 C14       -77.7964   30.4747  -72.1299 C.ar      11 UNK        -0.0933 
     15 C15       -75.2813   30.4178  -71.9434 C.3       11 UNK         0.0166 
     16 S16       -74.6779   30.2886  -73.6552 S.3       11 UNK        -0.2615 
     17 C17       -73.6411   28.7909  -73.5611 C.3       11 UNK        -0.0865 
     18 CA        -72.1270   29.1162  -73.4641 C.3       10 UNK         0.0862 
     19 C         -71.2857   27.8354  -73.1840 C.2       10 UNK         0.5551 
     20 N         -70.3096   27.4724  -74.0097 N.am      10 UNK        -0.7319 
     21 O         -71.5102   27.1660  -72.1790 O.2       10 UNK        -0.5018 
     22 N         -71.6578   29.8946  -74.6219 N.am      10 UNK        -0.4509 
     23 C         -70.6101   30.7302  -74.5992 C.2       10 UNK         0.4899 
     24 O         -69.9877   31.0089  -73.5727 O.2       10 UNK        -0.4839 
     25 CA        -70.1802   31.3620  -75.9427 C.3       9 UNK         0.0222 
     26 CB        -68.6944   31.7822  -75.9508 C.3       9 UNK        -0.1966 
     27 N         -70.4867   30.5329  -77.1166 N.am      9 UNK        -0.4218 
     28 C         -70.0664   29.2818  -77.3534 C.2       9 UNK         0.5020 
     29 O         -69.3131   28.6454  -76.6122 O.2       9 UNK        -0.5274 
     30 CA        -70.6425   28.6019  -78.6080 C.3       8 UNK         0.0270 
     31 CB        -69.5225   28.2272  -79.5929 C.3       8 UNK        -0.1976 
     32 N         -71.4142   27.4032  -78.2648 N.am      8 UNK        -0.4313 
     33 C         -72.4612   27.3767  -77.4286 C.2       8 UNK         0.5041 
     34 O         -72.9229   28.3853  -76.8854 O.2       8 UNK        -0.5577 
     35 CA        -73.0670   25.9903  -77.1403 C.3       7 UNK         0.0284 
     36 CB        -72.0818   25.1054  -76.3569 C.3       7 UNK        -0.1958 
     37 N         -74.2962   26.1027  -76.3590 N.am      7 UNK        -0.4454 
     38 C         -75.4968   26.4528  -76.8277 C.2       7 UNK         0.5089 
     39 O         -75.7477   26.5749  -78.0286 O.2       7 UNK        -0.5125 
     40 CA        -76.5937   26.7074  -75.7696 C.3       6 UNK         0.0408 
     41 CB        -77.9520   27.0362  -76.4112 C.3       6 UNK        -0.1791 
     42 N         -76.7741   25.5973  -74.8247 N.am      6 UNK        -0.4762 
     43 C         -75.9323   25.2630  -73.8343 C.2       6 UNK         0.5007 
     44 O         -74.8720   25.8535  -73.6285 O.2       6 UNK        -0.5032 
     45 CA        -76.2748   24.0581  -72.9416 C.3       5 UNK         0.0783 
     46 C46       -76.7693   24.4832  -71.5377 C.3       11 UNK        -0.0857 
     47 S47       -78.4331   25.2371  -71.5084 S.3       11 UNK        -0.2512 
     48 C48       -78.1997   26.5838  -70.3047 C.3       11 UNK         0.0225 
     49 N         -77.1690   23.0969  -73.5971 N.am      5 UNK        -0.4615 
     50 C         -76.9250   21.7802  -73.6725 C.2       4 UNK         0.5053 
     51 O         -75.9315   21.2413  -73.1829 O.2       4 UNK        -0.5105 
     52 CA        -77.9473   20.8935  -74.4097 C.3       4 UNK         0.0263 
     53 CB        -78.9016   20.2315  -73.4023 C.3       4 UNK        -0.1981 
     54 N         -78.7364   21.6076  -75.4123 N.am      4 UNK        -0.4224 
     55 C         -78.2542   22.1699  -76.5294 C.2       3 UNK         0.4895 
     56 O         -77.0878   22.0542  -76.9059 O.2       3 UNK        -0.5091 
     57 CA        -79.2307   23.0285  -77.3577 C.3       3 UNK         0.0250 
     58 CB        -79.6616   22.2754  -78.6270 C.3       3 UNK        -0.1996 
     59 N         -80.4315   23.4762  -76.6354 N.am      3 UNK        -0.4254 
     60 C         -80.4386   24.2337  -75.5295 C.2       2 UNK         0.5004 
     61 O         -79.4168   24.5921  -74.9398 O.2       2 UNK        -0.5226 
     62 CA        -81.8137   24.5789  -74.9391 C.3       2 UNK         0.0269 
     63 CB        -82.1108   23.6762  -73.7305 C.3       2 UNK        -0.1926 
     64 N         -81.8879   25.9777  -74.5174 N.am      2 UNK        -0.4687 
     65 C         -81.9061   27.0304  -75.3486 C.2       1 UNK         0.5165 
     66 O         -81.8769   26.9278  -76.5759 O.2       1 UNK        -0.5079 
     67 H67       -84.9178   27.2670  -71.5275 H         1 UNK         0.0900 
     68 H68       -85.1886   29.0096  -71.6157 H         1 UNK         0.0900 
     69 H69       -83.6392   28.3850  -71.0484 H         1 UNK         0.0900 
     70 H70       -82.0368   28.5526  -72.6009 H         1 UNK         0.2959 
     71 H71       -82.5999   29.0452  -75.3758 H         1 UNK         0.1079 
     72 H72       -80.1292   29.0697  -75.6401 H         1 UNK         0.0837 
     73 H73       -79.9093   28.4794  -74.0198 H         1 UNK         0.0837 
     74 H74       -81.1988   30.2792  -71.8314 H         1 UNK         0.0685 
     75 H75       -80.2306   31.7218  -71.9049 H         1 UNK         0.0685 
     76 H76       -80.1535   28.2304  -71.1700 H         1 UNK         0.1434 
     77 H77       -75.8850   27.9400  -70.9157 H         1 UNK         0.1329 
     78 H78       -77.7052   31.4603  -72.5661 H         1 UNK         0.1335 
     79 H79       -75.3535   31.4751  -71.6839 H         1 UNK         0.0680 
     80 H80       -74.5536   29.9920  -71.2508 H         1 UNK         0.0680 
     81 H81       -73.9657   28.1871  -72.7119 H         1 UNK         0.1032 
     82 H82       -73.8395   28.1868  -74.4455 H         1 UNK         0.1032 
     83 H83       -72.0004   29.7384  -72.5760 H         1 UNK         0.0461 
     84 H84       -69.7697   26.6498  -73.7957 H         1 UNK         0.3453 
     85 H85       -70.0880   28.0166  -74.8361 H         1 UNK         0.3453 
     86 H86       -72.1018   29.6677  -75.5065 H         1 UNK         0.2984 
     87 H87       -70.7781   32.2682  -76.0495 H         1 UNK         0.0554 
     88 H88       -68.4161   32.2416  -76.8991 H         1 UNK         0.0847 
     89 H89       -68.0332   30.9312  -75.7834 H         1 UNK         0.0847 
     90 H90       -68.4878   32.5126  -75.1676 H         1 UNK         0.0847 
     91 H91       -71.1410   30.9397  -77.7715 H         1 UNK         0.3141 
     92 H92       -71.3201   29.2950  -79.1110 H         1 UNK         0.0743 
     93 H93       -68.9413   29.1064  -79.8742 H         1 UNK         0.0784 
     94 H94       -68.8293   27.5042  -79.1605 H         1 UNK         0.0784 
     95 H95       -69.9257   27.7996  -80.5112 H         1 UNK         0.0784 
     96 H96       -71.0793   26.5310  -78.6476 H         1 UNK         0.3213 
     97 H97       -73.2963   25.5114  -78.0947 H         1 UNK         0.0855 
     98 H98       -71.8352   25.5398  -75.3878 H         1 UNK         0.0814 
     99 H99       -71.1463   24.9656  -76.8995 H         1 UNK         0.0814 
    100 H100      -72.4990   24.1140  -76.1787 H         1 UNK         0.0814 
    101 H101      -74.2073   26.0420  -75.3480 H         1 UNK         0.3105 
    102 H102      -76.2846   27.5841  -75.1962 H         1 UNK         0.0547 
    103 H103      -78.7165   27.1798  -75.6511 H         1 UNK         0.0837 
    104 H104      -77.8974   27.9515  -77.0015 H         1 UNK         0.0837 
    105 H105      -78.2918   26.2386  -77.0717 H         1 UNK         0.0837 
    106 H106      -77.6609   25.1046  -74.8996 H         1 UNK         0.3020 
    107 H107      -75.3057   23.5776  -72.7872 H         1 UNK         0.1245 
    108 H108      -76.0449   25.1631  -71.0854 H         1 UNK         0.0781 
    109 H109      -76.7940   23.6092  -70.8852 H         1 UNK         0.0781 
    110 H110      -77.3536   26.3774  -69.6479 H         1 UNK         0.0836 
    111 H111      -79.0728   26.6117  -69.6510 H         1 UNK         0.0836 
    112 H112      -78.0187   23.4746  -74.0030 H         1 UNK         0.3022 
    113 H113      -77.3887   20.1080  -74.9232 H         1 UNK         0.0747 
    114 H114      -79.5817   19.5366  -73.8954 H         1 UNK         0.0793 
    115 H115      -78.3466   19.6626  -72.6549 H         1 UNK         0.0793 
    116 H116      -79.5017   20.9704  -72.8692 H         1 UNK         0.0793 
    117 H117      -79.7113   21.7542  -75.1983 H         1 UNK         0.3047 
    118 H118      -78.6817   23.9216  -77.6621 H         1 UNK         0.0822 
    119 H119      -78.7939   21.9554  -79.2060 H         1 UNK         0.0807 
    120 H120      -80.2658   22.9069  -79.2787 H         1 UNK         0.0807 
    121 H121      -80.2415   21.3827  -78.3895 H         1 UNK         0.0807 
    122 H122      -81.3166   23.2060  -77.0408 H         1 UNK         0.2946 
    123 H123      -82.5816   24.4138  -75.6984 H         1 UNK         0.1144 
    124 H124      -82.1002   22.6231  -74.0144 H         1 UNK         0.0793 
    125 H125      -83.0945   23.8862  -73.3101 H         1 UNK         0.0793 
    126 H126      -81.3719   23.8077  -72.9381 H         1 UNK         0.0793 
    127 H127      -81.8868   26.1533  -73.5239 H         1 UNK         0.2896 
@<TRIPOS>BOND
     1    1    2 1    
     2    1   67 1    
     3    1   68 1    
     4    1   69 1    
     5    2    3 2    
     6    2    4 am   BACKBONE|DICT|INTERRES
     7    4    5 1    
     8    4   70 1    
     9    5    6 1    
    10    5   65 1    
    11    5   71 1    
    12    6    7 1    
    13    6   72 1    
    14    6   73 1    
    15    7    8 1    
    16    8    9 1    
    17    8   74 1    
    18    8   75 1    
    19    9   10 ar   
    20    9   14 ar   
    21   10   11 ar   
    22   10   76 1    
    23   11   12 ar   
    24   11   48 1    
    25   12   13 ar   
    26   12   77 1    
    27   13   14 ar   
    28   13   15 1    
    29   14   78 1    
    30   15   16 1    
    31   15   79 1    
    32   15   80 1    
    33   16   17 1    
    34   17   18 1    
    35   17   81 1    
    36   17   82 1    
    37   18   19 1    
    38   18   22 1    
    39   18   83 1    
    40   19   20 am   BACKBONE|DICT|INTERRES
    41   19   21 2    
    42   20   84 1    
    43   20   85 1    
    44   22   23 am   BACKBONE|DICT|INTERRES
    45   22   86 1    
    46   23   24 2    
    47   23   25 1    
    48   25   26 1    
    49   25   27 1    
    50   25   87 1    
    51   26   88 1    
    52   26   89 1    
    53   26   90 1    
    54   27   28 am   BACKBONE|DICT|INTERRES
    55   27   91 1    
    56   28   29 2    
    57   28   30 1    
    58   30   31 1    
    59   30   32 1    
    60   30   92 1    
    61   31   93 1    
    62   31   94 1    
    63   31   95 1    
    64   32   33 am   BACKBONE|DICT|INTERRES
    65   32   96 1    
    66   33   34 2    
    67   33   35 1    
    68   35   36 1    
    69   35   37 1    
    70   35   97 1    
    71   36   98 1    
    72   36   99 1    
    73   36  100 1    
    74   37   38 am   BACKBONE|DICT|INTERRES
    75   37  101 1    
    76   38   39 2    
    77   38   40 1    
    78   40   41 1    
    79   40   42 1    
    80   40  102 1    
    81   41  103 1    
    82   41  104 1    
    83   41  105 1    
    84   42   43 am   BACKBONE|DICT|INTERRES
    85   42  106 1    
    86   43   44 2    
    87   43   45 1    
    88   45   46 1    
    89   45   49 1    
    90   45  107 1    
    91   46   47 1    
    92   46  108 1    
    93   46  109 1    
    94   47   48 1    
    95   48  110 1    
    96   48  111 1    
    97   49   50 am   BACKBONE|DICT|INTERRES
    98   49  112 1    
    99   50   51 2    
   100   50   52 1    
   101   52   53 1    
   102   52   54 1    
   103   52  113 1    
   104   53  114 1    
   105   53  115 1    
   106   53  116 1    
   107   54   55 am   BACKBONE|DICT|INTERRES
   108   54  117 1    
   109   55   56 2    
   110   55   57 1    
   111   57   58 1    
   112   57   59 1    
   113   57  118 1    
   114   58  119 1    
   115   58  120 1    
   116   58  121 1    
   117   59   60 am   BACKBONE|DICT|INTERRES
   118   59  122 1    
   119   60   61 2    
   120   60   62 1    
   121   62   63 1    
   122   62   64 1    
   123   62  123 1    
   124   63  124 1    
   125   63  125 1    
   126   63  126 1    
   127   64   65 am   BACKBONE|DICT|INTERRES
   128   64  127 1    
   129   65   66 2    
@<TRIPOS>SUBSTRUCTURE
     1 UNK         1 GROUP             0       ****    0 ROOT    
