@<TRIPOS>MOLECULE
3R135
127   129    1
SMALL
USER_CHARGES


@<TRIPOS>ATOM
      1 CA        -81.1387   22.5499  -70.3905 C.3       0 UNK        -0.1998 
      2 C         -80.7227   23.4581  -71.5369 C.2       0 UNK         0.4909 
      3 O         -81.5244   23.7189  -72.4348 O.2       0 UNK        -0.5240 
      4 N         -79.4686   23.9325  -71.5239 N.am      1 UNK        -0.4739 
      5 CA        -78.8980   24.8645  -72.5102 C.3       1 UNK         0.0864 
      6 C6        -77.4797   25.3482  -72.1184 C.3       11 UNK        -0.0881 
      7 S7        -77.3091   25.8832  -70.3792 S.3       11 UNK        -0.2682 
      8 C8        -78.5321   27.2343  -70.2435 C.3       11 UNK         0.0289 
      9 C9        -78.2951   28.3986  -71.2021 C.ar      11 UNK        -0.0687 
     10 C10       -79.3879   29.0391  -71.7971 C.ar      11 UNK        -0.0823 
     11 C11       -79.1962   30.1255  -72.6569 C.ar      11 UNK        -0.0830 
     12 C12       -77.8971   30.5698  -72.9240 C.ar      11 UNK        -0.1021 
     13 C13       -76.7976   29.9371  -72.3398 C.ar      11 UNK        -0.0753 
     14 C14       -77.0027   28.8628  -71.4718 C.ar      11 UNK        -0.0933 
     15 C15       -75.3855   30.4046  -72.6474 C.3       11 UNK         0.0166 
     16 S16       -74.6980   29.4698  -74.0432 S.3       11 UNK        -0.2615 
     17 C17       -72.9705   30.0497  -74.0209 C.3       11 UNK        -0.0865 
     18 CA        -72.2673   29.8594  -75.3974 C.3       10 UNK         0.0862 
     19 C         -72.4887   31.0351  -76.3979 C.2       10 UNK         0.5551 
     20 N         -73.6929   31.5861  -76.4582 N.am      10 UNK        -0.7319 
     21 O         -71.5995   31.4240  -77.1537 O.2       10 UNK        -0.5018 
     22 N         -70.8625   29.4564  -75.2424 N.am      10 UNK        -0.4509 
     23 C         -69.8720   30.1870  -74.7098 C.2       10 UNK         0.4899 
     24 O         -70.0290   31.3183  -74.2469 O.2       10 UNK        -0.4839 
     25 CA        -68.4673   29.5411  -74.6942 C.3       9 UNK         0.0222 
     26 CB        -67.5364   30.1488  -73.6222 C.3       9 UNK        -0.1966 
     27 N         -68.5038   28.0739  -74.6004 N.am      9 UNK        -0.4218 
     28 C         -69.0020   27.3435  -73.5920 C.2       9 UNK         0.5020 
     29 O         -69.4067   27.8068  -72.5233 O.2       9 UNK        -0.5274 
     30 CA        -69.1284   25.8312  -73.8492 C.3       8 UNK         0.0270 
     31 CB        -68.3229   25.0214  -72.8191 C.3       8 UNK        -0.1976 
     32 N         -70.5354   25.4234  -73.8041 N.am      8 UNK        -0.4313 
     33 C         -71.4782   25.8698  -74.6447 C.2       8 UNK         0.5041 
     34 O         -71.2344   26.5745  -75.6320 O.2       8 UNK        -0.5577 
     35 CA        -72.9319   25.4970  -74.3189 C.3       7 UNK         0.0284 
     36 CB        -73.3427   26.0054  -72.9185 C.3       7 UNK        -0.1958 
     37 N         -73.7733   26.0997  -75.3476 N.am      7 UNK        -0.4454 
     38 C         -75.0710   25.8746  -75.5570 C.2       7 UNK         0.5089 
     39 O         -75.7433   25.0607  -74.9215 O.2       7 UNK        -0.5125 
     40 CA        -75.7229   26.6888  -76.6795 C.3       6 UNK         0.0408 
     41 CB        -75.7489   25.8939  -77.9948 C.3       6 UNK        -0.1791 
     42 N         -77.0887   27.0122  -76.2823 N.am      6 UNK        -0.4762 
     43 C         -77.6533   28.2244  -76.3558 C.2       6 UNK         0.5007 
     44 O         -77.1128   29.2071  -76.8672 O.2       6 UNK        -0.5032 
     45 CA        -79.0781   28.3242  -75.7753 C.3       5 UNK         0.0783 
     46 C46       -79.6785   29.7567  -75.8077 C.3       11 UNK        -0.0857 
     47 S47       -81.1038   29.8834  -74.6767 S.3       11 UNK        -0.2512 
     48 C48       -80.3914   30.8283  -73.2894 C.3       11 UNK         0.0225 
     49 N         -79.9429   27.3003  -76.3772 N.am      5 UNK        -0.4615 
     50 C         -80.3165   27.2230  -77.6632 C.2       4 UNK         0.5053 
     51 O         -80.0810   28.0971  -78.4979 O.2       4 UNK        -0.5105 
     52 CA        -81.0583   25.9579  -78.1258 C.3       4 UNK         0.0263 
     53 CB        -80.2418   25.2094  -79.1965 C.3       4 UNK        -0.1981 
     54 N         -81.3680   25.0270  -77.0368 N.am      4 UNK        -0.4224 
     55 C         -82.4967   24.3074  -76.9461 C.2       3 UNK         0.4895 
     56 O         -83.4545   24.4484  -77.7091 O.2       3 UNK        -0.5091 
     57 CA        -82.5758   23.2453  -75.8253 C.3       3 UNK         0.0250 
     58 CB        -83.4234   22.0196  -76.2278 C.3       3 UNK        -0.1996 
     59 N         -81.2644   22.8276  -75.3125 N.am      3 UNK        -0.4254 
     60 C         -80.2535   22.2650  -75.9984 C.2       2 UNK         0.5004 
     61 O         -80.3527   21.8772  -77.1631 O.2       2 UNK        -0.5226 
     62 CA        -78.8880   22.1524  -75.2837 C.3       2 UNK         0.0269 
     63 CB        -77.7171   22.4694  -76.2385 C.3       2 UNK        -0.1926 
     64 N         -78.7798   22.9628  -74.0605 N.am      2 UNK        -0.4687 
     65 C         -78.8950   24.2969  -73.9449 C.2       1 UNK         0.5165 
     66 O         -79.0766   25.0566  -74.8988 O.2       1 UNK        -0.5079 
     67 H67       -81.4355   21.5741  -70.7740 H         1 UNK         0.0900 
     68 H68       -81.9881   22.9810  -69.8613 H         1 UNK         0.0900 
     69 H69       -80.3313   22.4024  -69.6734 H         1 UNK         0.0900 
     70 H70       -78.8557   23.6955  -70.7559 H         1 UNK         0.2959 
     71 H71       -79.5552   25.7360  -72.5353 H         1 UNK         0.1079 
     72 H72       -77.1688   26.1711  -72.7657 H         1 UNK         0.0837 
     73 H73       -76.7492   24.5529  -72.2810 H         1 UNK         0.0837 
     74 H74       -79.5309   26.8179  -70.3808 H         1 UNK         0.0685 
     75 H75       -78.5030   27.6209  -69.2241 H         1 UNK         0.0685 
     76 H76       -80.3930   28.6978  -71.5889 H         1 UNK         0.1434 
     77 H77       -77.7379   31.4055  -73.5918 H         1 UNK         0.1329 
     78 H78       -76.1490   28.3817  -71.0147 H         1 UNK         0.1335 
     79 H79       -74.7492   30.2723  -71.7707 H         1 UNK         0.0680 
     80 H80       -75.3780   31.4703  -72.8818 H         1 UNK         0.0680 
     81 H81       -72.4581   29.4726  -73.2491 H         1 UNK         0.1032 
     82 H82       -72.9167   31.0897  -73.6928 H         1 UNK         0.1032 
     83 H83       -72.7157   28.9963  -75.8902 H         1 UNK         0.0461 
     84 H84       -73.8647   32.3342  -77.1111 H         1 UNK         0.3453 
     85 H85       -74.4393   31.2393  -75.8737 H         1 UNK         0.3453 
     86 H86       -70.6556   28.5191  -75.5717 H         1 UNK         0.2984 
     87 H87       -68.0293   29.7661  -75.6676 H         1 UNK         0.0554 
     88 H88       -67.3873   31.2156  -73.7935 H         1 UNK         0.0847 
     89 H89       -66.5526   29.6800  -73.6374 H         1 UNK         0.0847 
     90 H90       -67.9462   30.0380  -72.6179 H         1 UNK         0.0847 
     91 H91       -68.2216   27.5831  -75.4385 H         1 UNK         0.3141 
     92 H92       -68.7411   25.5992  -74.8438 H         1 UNK         0.0743 
     93 H93       -68.6804   25.1891  -71.8021 H         1 UNK         0.0784 
     94 H94       -68.3781   23.9518  -73.0229 H         1 UNK         0.0784 
     95 H95       -67.2688   25.3012  -72.8434 H         1 UNK         0.0784 
     96 H96       -70.8175   24.8719  -73.0069 H         1 UNK         0.3213 
     97 H97       -73.0342   24.4112  -74.3690 H         1 UNK         0.0855 
     98 H98       -72.7613   25.5244  -72.1318 H         1 UNK         0.0814 
     99 H99       -74.3909   25.7998  -72.7025 H         1 UNK         0.0814 
    100 H100      -73.1918   27.0809  -72.8231 H         1 UNK         0.0814 
    101 H101      -73.2572   26.7285  -75.9524 H         1 UNK         0.3105 
    102 H102      -75.1434   27.6032  -76.8250 H         1 UNK         0.0547 
    103 H103      -74.7385   25.6442  -78.3206 H         1 UNK         0.0837 
    104 H104      -76.2995   24.9587  -77.8908 H         1 UNK         0.0837 
    105 H105      -76.2158   26.4692  -78.7944 H         1 UNK         0.0837 
    106 H106      -77.5866   26.2601  -75.8143 H         1 UNK         0.3020 
    107 H107      -78.9628   28.0465  -74.7257 H         1 UNK         0.1245 
    108 H108      -79.9973   30.0354  -76.8121 H         1 UNK         0.0781 
    109 H109      -78.9362   30.5034  -75.5245 H         1 UNK         0.0781 
    110 H110      -81.1635   30.9815  -72.5339 H         1 UNK         0.0836 
    111 H111      -80.1122   31.8232  -73.6402 H         1 UNK         0.0836 
    112 H112      -80.1198   26.5066  -75.7750 H         1 UNK         0.3022 
    113 H113      -81.9858   26.3096  -78.5824 H         1 UNK         0.0747 
    114 H114      -80.0106   25.8570  -80.0433 H         1 UNK         0.0793 
    115 H115      -79.2957   24.8439  -78.7946 H         1 UNK         0.0793 
    116 H116      -80.7914   24.3525  -79.5867 H         1 UNK         0.0793 
    117 H117      -80.6242   24.8355  -76.3757 H         1 UNK         0.3047 
    118 H118      -83.0795   23.7333  -74.9894 H         1 UNK         0.0822 
    119 H119      -83.0203   21.5201  -77.1093 H         1 UNK         0.0807 
    120 H120      -84.4484   22.3106  -76.4608 H         1 UNK         0.0807 
    121 H121      -83.4724   21.2891  -75.4204 H         1 UNK         0.0807 
    122 H122      -81.0902   23.0946  -74.3481 H         1 UNK         0.2946 
    123 H123      -78.7957   21.1099  -74.9752 H         1 UNK         0.1144 
    124 H124      -76.7570   22.4014  -75.7268 H         1 UNK         0.0793 
    125 H125      -77.7996   23.4723  -76.6575 H         1 UNK         0.0793 
    126 H126      -77.6885   21.7696  -77.0745 H         1 UNK         0.0793 
    127 H127      -78.6637   22.4403  -73.2029 H         1 UNK         0.2896 
@<TRIPOS>BOND
     1    1    2 1    
     2    1   67 1    
     3    1   68 1    
     4    1   69 1    
     5    2    3 2    
     6    2    4 am   BACKBONE|DICT|INTERRES
     7    4    5 1    
     8    4   70 1    
     9    5    6 1    
    10    5   65 1    
    11    5   71 1    
    12    6    7 1    
    13    6   72 1    
    14    6   73 1    
    15    7    8 1    
    16    8    9 1    
    17    8   74 1    
    18    8   75 1    
    19    9   10 ar   
    20    9   14 ar   
    21   10   11 ar   
    22   10   76 1    
    23   11   12 ar   
    24   11   48 1    
    25   12   13 ar   
    26   12   77 1    
    27   13   14 ar   
    28   13   15 1    
    29   14   78 1    
    30   15   16 1    
    31   15   79 1    
    32   15   80 1    
    33   16   17 1    
    34   17   18 1    
    35   17   81 1    
    36   17   82 1    
    37   18   19 1    
    38   18   22 1    
    39   18   83 1    
    40   19   20 am   BACKBONE|DICT|INTERRES
    41   19   21 2    
    42   20   84 1    
    43   20   85 1    
    44   22   23 am   BACKBONE|DICT|INTERRES
    45   22   86 1    
    46   23   24 2    
    47   23   25 1    
    48   25   26 1    
    49   25   27 1    
    50   25   87 1    
    51   26   88 1    
    52   26   89 1    
    53   26   90 1    
    54   27   28 am   BACKBONE|DICT|INTERRES
    55   27   91 1    
    56   28   29 2    
    57   28   30 1    
    58   30   31 1    
    59   30   32 1    
    60   30   92 1    
    61   31   93 1    
    62   31   94 1    
    63   31   95 1    
    64   32   33 am   BACKBONE|DICT|INTERRES
    65   32   96 1    
    66   33   34 2    
    67   33   35 1    
    68   35   36 1    
    69   35   37 1    
    70   35   97 1    
    71   36   98 1    
    72   36   99 1    
    73   36  100 1    
    74   37   38 am   BACKBONE|DICT|INTERRES
    75   37  101 1    
    76   38   39 2    
    77   38   40 1    
    78   40   41 1    
    79   40   42 1    
    80   40  102 1    
    81   41  103 1    
    82   41  104 1    
    83   41  105 1    
    84   42   43 am   BACKBONE|DICT|INTERRES
    85   42  106 1    
    86   43   44 2    
    87   43   45 1    
    88   45   46 1    
    89   45   49 1    
    90   45  107 1    
    91   46   47 1    
    92   46  108 1    
    93   46  109 1    
    94   47   48 1    
    95   48  110 1    
    96   48  111 1    
    97   49   50 am   BACKBONE|DICT|INTERRES
    98   49  112 1    
    99   50   51 2    
   100   50   52 1    
   101   52   53 1    
   102   52   54 1    
   103   52  113 1    
   104   53  114 1    
   105   53  115 1    
   106   53  116 1    
   107   54   55 am   BACKBONE|DICT|INTERRES
   108   54  117 1    
   109   55   56 2    
   110   55   57 1    
   111   57   58 1    
   112   57   59 1    
   113   57  118 1    
   114   58  119 1    
   115   58  120 1    
   116   58  121 1    
   117   59   60 am   BACKBONE|DICT|INTERRES
   118   59  122 1    
   119   60   61 2    
   120   60   62 1    
   121   62   63 1    
   122   62   64 1    
   123   62  123 1    
   124   63  124 1    
   125   63  125 1    
   126   63  126 1    
   127   64   65 am   BACKBONE|DICT|INTERRES
   128   64  127 1    
   129   65   66 2    
@<TRIPOS>SUBSTRUCTURE
     1 UNK         1 GROUP             0       ****    0 ROOT    
