@<TRIPOS>MOLECULE
3R135
127   129    1
SMALL
USER_CHARGES


@<TRIPOS>ATOM
      1 CA        -80.6572   22.4428  -71.5776 C.3       0 UNK        -0.1998 
      2 C         -81.3699   23.5820  -72.2899 C.2       0 UNK         0.4909 
      3 O         -81.8374   23.4051  -73.4156 O.2       0 UNK        -0.5240 
      4 N         -81.4607   24.7510  -71.6437 N.am      1 UNK        -0.4739 
      5 CA        -82.0054   25.9855  -72.2176 C.3       1 UNK         0.0864 
      6 C6        -82.3118   27.0715  -71.1451 C.3       11 UNK        -0.0881 
      7 S7        -81.1403   27.1735  -69.7396 S.3       11 UNK        -0.2682 
      8 C8        -80.4602   28.8592  -69.8701 C.3       11 UNK         0.0289 
      9 C9        -79.1627   28.8669  -70.6611 C.ar      11 UNK        -0.0687 
     10 C10       -79.1572   29.2205  -72.0131 C.ar      11 UNK        -0.0823 
     11 C11       -77.9737   29.1718  -72.7559 C.ar      11 UNK        -0.0830 
     12 C12       -76.7941   28.7570  -72.1275 C.ar      11 UNK        -0.1021 
     13 C13       -76.7723   28.4592  -70.7645 C.ar      11 UNK        -0.0753 
     14 C14       -77.9635   28.5095  -70.0362 C.ar      11 UNK        -0.0933 
     15 C15       -75.4664   28.0765  -70.0833 C.3       11 UNK         0.0166 
     16 S16       -74.6083   29.5516  -69.4379 S.3       11 UNK        -0.2615 
     17 C17       -73.1954   29.7328  -70.5846 C.3       11 UNK        -0.0865 
     18 CA        -73.5441   30.5125  -71.8907 C.3       10 UNK         0.0862 
     19 C         -73.5428   32.0618  -71.7422 C.2       10 UNK         0.5551 
     20 N         -73.4794   32.8125  -72.8365 N.am      10 UNK        -0.7319 
     21 O         -73.5856   32.6000  -70.6389 O.2       10 UNK        -0.5018 
     22 N         -72.7438   30.0772  -73.0468 N.am      10 UNK        -0.4509 
     23 C         -72.7668   28.8666  -73.6148 C.2       10 UNK         0.4899 
     24 O         -73.4734   27.9367  -73.2218 O.2       10 UNK        -0.4839 
     25 CA        -71.8264   28.6509  -74.8128 C.3       9 UNK         0.0222 
     26 CB        -70.3924   29.1471  -74.5138 C.3       9 UNK        -0.1966 
     27 N         -71.8114   27.2264  -75.1432 N.am      9 UNK        -0.4218 
     28 C         -71.2885   26.6634  -76.2387 C.2       9 UNK         0.5020 
     29 O         -70.8264   27.3011  -77.1858 O.2       9 UNK        -0.5274 
     30 CA        -71.2215   25.1304  -76.2698 C.3       8 UNK         0.0270 
     31 CB        -70.9887   24.4966  -74.8820 C.3       8 UNK        -0.1976 
     32 N         -72.4370   24.5809  -76.8613 N.am      8 UNK        -0.4313 
     33 C         -72.4745   23.5221  -77.6795 C.2       8 UNK         0.5041 
     34 O         -71.4720   22.9302  -78.0839 O.2       8 UNK        -0.5577 
     35 CA        -73.8606   23.0112  -78.1054 C.3       7 UNK         0.0284 
     36 CB        -74.4614   22.1167  -77.0087 C.3       7 UNK        -0.1958 
     37 N         -74.8015   24.0836  -78.4290 N.am      7 UNK        -0.4454 
     38 C         -74.7279   24.8605  -79.5188 C.2       7 UNK         0.5089 
     39 O         -73.8601   24.7511  -80.3856 O.2       7 UNK        -0.5125 
     40 CA        -75.8049   25.9499  -79.6619 C.3       6 UNK         0.0408 
     41 CB        -77.1143   25.3635  -80.2137 C.3       6 UNK        -0.1791 
     42 N         -76.0612   26.6329  -78.3928 N.am      6 UNK        -0.4762 
     43 C         -75.2038   27.4886  -77.8162 C.2       6 UNK         0.5007 
     44 O         -74.1562   27.8628  -78.3422 O.2       6 UNK        -0.5032 
     45 CA        -75.5625   28.0042  -76.4113 C.3       5 UNK         0.0783 
     46 C46       -76.3388   29.3412  -76.5048 C.3       11 UNK        -0.0857 
     47 S47       -76.4454   30.1876  -74.8958 S.3       11 UNK        -0.2512 
     48 C48       -78.0107   29.5110  -74.2425 C.3       11 UNK         0.0225 
     49 N         -76.2768   26.9859  -75.6325 N.am      5 UNK        -0.4615 
     50 C         -75.7084   25.8822  -75.1285 C.2       4 UNK         0.5053 
     51 O         -74.5162   25.6096  -75.2586 O.2       4 UNK        -0.5105 
     52 CA        -76.6330   24.8773  -74.4197 C.3       4 UNK         0.0263 
     53 CB        -76.7739   25.2137  -72.9283 C.3       4 UNK        -0.1981 
     54 N         -77.9585   24.7881  -75.0396 N.am      4 UNK        -0.4224 
     55 C         -78.1666   24.3174  -76.2798 C.2       3 UNK         0.4895 
     56 O         -77.2655   23.8823  -76.9956 O.2       3 UNK        -0.5091 
     57 CA        -79.5949   24.3700  -76.8504 C.3       3 UNK         0.0250 
     58 CB        -80.2879   23.0095  -76.6821 C.3       3 UNK        -0.1996 
     59 N         -80.4319   25.4213  -76.2693 N.am      3 UNK        -0.4254 
     60 C         -80.1795   26.7361  -76.3477 C.2       2 UNK         0.5004 
     61 O         -79.2163   27.2115  -76.9508 O.2       2 UNK        -0.5226 
     62 CA        -81.1304   27.6785  -75.5842 C.3       2 UNK         0.0269 
     63 CB        -82.2259   28.2016  -76.5264 C.3       2 UNK        -0.1926 
     64 N         -81.7586   27.0979  -74.3883 N.am      2 UNK        -0.4687 
     65 C         -81.1177   26.5110  -73.3648 C.2       1 UNK         0.5165 
     66 O         -79.8954   26.3557  -73.3254 O.2       1 UNK        -0.5079 
     67 H67       -80.3088   22.7366  -70.5875 H         1 UNK         0.0900 
     68 H68       -81.3288   21.5924  -71.4634 H         1 UNK         0.0900 
     69 H69       -79.7937   22.1210  -72.1594 H         1 UNK         0.0900 
     70 H70       -81.0350   24.8613  -70.7337 H         1 UNK         0.2959 
     71 H71       -82.9610   25.7129  -72.6720 H         1 UNK         0.1079 
     72 H72       -83.2847   26.8483  -70.7044 H         1 UNK         0.0837 
     73 H73       -82.4368   28.0541  -71.6038 H         1 UNK         0.0837 
     74 H74       -81.1932   29.5378  -70.3084 H         1 UNK         0.0685 
     75 H75       -80.2690   29.2347  -68.8637 H         1 UNK         0.0685 
     76 H76       -80.0831   29.5030  -72.4947 H         1 UNK         0.1434 
     77 H77       -75.8851   28.6570  -72.7006 H         1 UNK         0.1329 
     78 H78       -77.9612   28.2555  -68.9851 H         1 UNK         0.1335 
     79 H79       -74.8268   27.5279  -70.7764 H         1 UNK         0.0680 
     80 H80       -75.6670   27.3961  -69.2545 H         1 UNK         0.0680 
     81 H81       -72.8225   28.7324  -70.8037 H         1 UNK         0.1032 
     82 H82       -72.3756   30.2221  -70.0559 H         1 UNK         0.1032 
     83 H83       -74.5759   30.2898  -72.1481 H         1 UNK         0.0461 
     84 H84       -73.5182   32.4007  -73.7552 H         1 UNK         0.3453 
     85 H85       -73.4722   33.8159  -72.7387 H         1 UNK         0.3453 
     86 H86       -72.1209   30.7813  -73.4169 H         1 UNK         0.2984 
     87 H87       -72.2348   29.2007  -75.6628 H         1 UNK         0.0554 
     88 H88       -70.3655   30.2216  -74.3320 H         1 UNK         0.0847 
     89 H89       -69.7176   28.9614  -75.3491 H         1 UNK         0.0847 
     90 H90       -69.9736   28.6541  -73.6354 H         1 UNK         0.0847 
     91 H91       -72.2810   26.6432  -74.4588 H         1 UNK         0.3141 
     92 H92       -70.3619   24.8813  -76.8959 H         1 UNK         0.0743 
     93 H93       -71.8591   24.5982  -74.2323 H         1 UNK         0.0784 
     94 H94       -70.7712   23.4322  -74.9724 H         1 UNK         0.0784 
     95 H95       -70.1385   24.9561  -74.3760 H         1 UNK         0.0784 
     96 H96       -73.3090   24.9971  -76.5378 H         1 UNK         0.3213 
     97 H97       -73.7269   22.4015  -79.0018 H         1 UNK         0.0855 
     98 H98       -74.6415   22.6734  -76.0883 H         1 UNK         0.0814 
     99 H99       -73.7906   21.2915  -76.7661 H         1 UNK         0.0814 
    100 H100      -75.4093   21.6819  -77.3265 H         1 UNK         0.0814 
    101 H101      -75.6017   24.1903  -77.8094 H         1 UNK         0.3105 
    102 H102      -75.4420   26.6891  -80.3795 H         1 UNK         0.0547 
    103 H103      -76.9515   24.9069  -81.1908 H         1 UNK         0.0837 
    104 H104      -77.5247   24.5924  -79.5620 H         1 UNK         0.0837 
    105 H105      -77.8737   26.1353  -80.3398 H         1 UNK         0.0837 
    106 H106      -76.9079   26.3880  -77.8972 H         1 UNK         0.3020 
    107 H107      -74.6145   28.1982  -75.9063 H         1 UNK         0.1245 
    108 H108      -77.3376   29.1941  -76.9199 H         1 UNK         0.0781 
    109 H109      -75.8313   30.0290  -77.1844 H         1 UNK         0.0781 
    110 H110      -78.2728   28.5991  -74.7735 H         1 UNK         0.0836 
    111 H111      -78.8034   30.2317  -74.4485 H         1 UNK         0.0836 
    112 H112      -77.2748   27.1057  -75.5376 H         1 UNK         0.3022 
    113 H113      -76.1626   23.8949  -74.4962 H         1 UNK         0.0747 
    114 H114      -77.3138   24.4315  -72.3947 H         1 UNK         0.0793 
    115 H115      -75.7969   25.3198  -72.4544 H         1 UNK         0.0793 
    116 H116      -77.3126   26.1480  -72.7770 H         1 UNK         0.0793 
    117 H117      -78.7375   25.1702  -74.5108 H         1 UNK         0.3047 
    118 H118      -79.5076   24.5777  -77.9188 H         1 UNK         0.0822 
    119 H119      -81.2750   23.0046  -77.1446 H         1 UNK         0.0807 
    120 H120      -80.4071   22.7449  -75.6309 H         1 UNK         0.0807 
    121 H121      -79.7066   22.2154  -77.1532 H         1 UNK         0.0807 
    122 H122      -81.2281   25.1192  -75.7254 H         1 UNK         0.2946 
    123 H123      -80.5407   28.5333  -75.2535 H         1 UNK         0.1144 
    124 H124      -81.7901   28.6622  -77.4146 H         1 UNK         0.0793 
    125 H125      -82.8402   28.9603  -76.0410 H         1 UNK         0.0793 
    126 H126      -82.8842   27.4004  -76.8649 H         1 UNK         0.0793 
    127 H127      -82.7654   27.1699  -74.3446 H         1 UNK         0.2896 
@<TRIPOS>BOND
     1    1    2 1    
     2    1   67 1    
     3    1   68 1    
     4    1   69 1    
     5    2    3 2    
     6    2    4 am   BACKBONE|DICT|INTERRES
     7    4    5 1    
     8    4   70 1    
     9    5    6 1    
    10    5   65 1    
    11    5   71 1    
    12    6    7 1    
    13    6   72 1    
    14    6   73 1    
    15    7    8 1    
    16    8    9 1    
    17    8   74 1    
    18    8   75 1    
    19    9   10 ar   
    20    9   14 ar   
    21   10   11 ar   
    22   10   76 1    
    23   11   12 ar   
    24   11   48 1    
    25   12   13 ar   
    26   12   77 1    
    27   13   14 ar   
    28   13   15 1    
    29   14   78 1    
    30   15   16 1    
    31   15   79 1    
    32   15   80 1    
    33   16   17 1    
    34   17   18 1    
    35   17   81 1    
    36   17   82 1    
    37   18   19 1    
    38   18   22 1    
    39   18   83 1    
    40   19   20 am   BACKBONE|DICT|INTERRES
    41   19   21 2    
    42   20   84 1    
    43   20   85 1    
    44   22   23 am   BACKBONE|DICT|INTERRES
    45   22   86 1    
    46   23   24 2    
    47   23   25 1    
    48   25   26 1    
    49   25   27 1    
    50   25   87 1    
    51   26   88 1    
    52   26   89 1    
    53   26   90 1    
    54   27   28 am   BACKBONE|DICT|INTERRES
    55   27   91 1    
    56   28   29 2    
    57   28   30 1    
    58   30   31 1    
    59   30   32 1    
    60   30   92 1    
    61   31   93 1    
    62   31   94 1    
    63   31   95 1    
    64   32   33 am   BACKBONE|DICT|INTERRES
    65   32   96 1    
    66   33   34 2    
    67   33   35 1    
    68   35   36 1    
    69   35   37 1    
    70   35   97 1    
    71   36   98 1    
    72   36   99 1    
    73   36  100 1    
    74   37   38 am   BACKBONE|DICT|INTERRES
    75   37  101 1    
    76   38   39 2    
    77   38   40 1    
    78   40   41 1    
    79   40   42 1    
    80   40  102 1    
    81   41  103 1    
    82   41  104 1    
    83   41  105 1    
    84   42   43 am   BACKBONE|DICT|INTERRES
    85   42  106 1    
    86   43   44 2    
    87   43   45 1    
    88   45   46 1    
    89   45   49 1    
    90   45  107 1    
    91   46   47 1    
    92   46  108 1    
    93   46  109 1    
    94   47   48 1    
    95   48  110 1    
    96   48  111 1    
    97   49   50 am   BACKBONE|DICT|INTERRES
    98   49  112 1    
    99   50   51 2    
   100   50   52 1    
   101   52   53 1    
   102   52   54 1    
   103   52  113 1    
   104   53  114 1    
   105   53  115 1    
   106   53  116 1    
   107   54   55 am   BACKBONE|DICT|INTERRES
   108   54  117 1    
   109   55   56 2    
   110   55   57 1    
   111   57   58 1    
   112   57   59 1    
   113   57  118 1    
   114   58  119 1    
   115   58  120 1    
   116   58  121 1    
   117   59   60 am   BACKBONE|DICT|INTERRES
   118   59  122 1    
   119   60   61 2    
   120   60   62 1    
   121   62   63 1    
   122   62   64 1    
   123   62  123 1    
   124   63  124 1    
   125   63  125 1    
   126   63  126 1    
   127   64   65 am   BACKBONE|DICT|INTERRES
   128   64  127 1    
   129   65   66 2    
@<TRIPOS>SUBSTRUCTURE
     1 UNK         1 GROUP             0       ****    0 ROOT    
