@<TRIPOS>MOLECULE
3R135
127   129    1
SMALL
USER_CHARGES


@<TRIPOS>ATOM
      1 CA        -83.2918   26.7713  -69.8282 C.3       0 UNK        -0.1998 
      2 C         -83.6821   26.7870  -71.2985 C.2       0 UNK         0.4909 
      3 O         -84.6567   26.1397  -71.6820 O.2       0 UNK        -0.5240 
      4 N         -82.9263   27.5216  -72.1250 N.am      1 UNK        -0.4739 
      5 CA        -83.1281   27.6306  -73.5766 C.3       1 UNK         0.0864 
      6 C6        -82.4754   28.9157  -74.1519 C.3       11 UNK        -0.0881 
      7 S7        -80.6585   28.9799  -73.9696 S.3       11 UNK        -0.2682 
      8 C8        -80.4750   29.9987  -72.4732 C.3       11 UNK         0.0289 
      9 C9        -79.0786   29.8446  -71.8948 C.ar      11 UNK        -0.0687 
     10 C10       -78.7095   28.6449  -71.2781 C.ar      11 UNK        -0.0823 
     11 C11       -77.4159   28.4737  -70.7789 C.ar      11 UNK        -0.0830 
     12 C12       -76.4974   29.5215  -70.8733 C.ar      11 UNK        -0.1021 
     13 C13       -76.8525   30.7212  -71.4949 C.ar      11 UNK        -0.0753 
     14 C14       -78.1476   30.8823  -71.9966 C.ar      11 UNK        -0.0933 
     15 C15       -75.8230   31.8282  -71.6526 C.3       11 UNK         0.0166 
     16 S16       -75.2947   32.0227  -73.3849 S.3       11 UNK        -0.2615 
     17 C17       -74.5489   30.3991  -73.7716 C.3       11 UNK        -0.0865 
     18 CA        -72.9983   30.4403  -73.7401 C.3       10 UNK         0.0862 
     19 C         -72.4295   30.0567  -72.3481 C.2       10 UNK         0.5551 
     20 N         -72.1541   31.0369  -71.4986 N.am      10 UNK        -0.7319 
     21 O         -72.2682   28.8834  -72.0205 O.2       10 UNK        -0.5018 
     22 N         -72.4310   29.6198  -74.8165 N.am      10 UNK        -0.4509 
     23 C         -71.2201   29.8180  -75.3518 C.2       10 UNK         0.4899 
     24 O         -70.4329   30.6830  -74.9629 O.2       10 UNK        -0.4839 
     25 CA        -70.8565   28.9401  -76.5610 C.3       9 UNK         0.0222 
     26 CB        -69.3818   29.0735  -77.0016 C.3       9 UNK        -0.1966 
     27 N         -71.2490   27.5391  -76.3908 N.am      9 UNK        -0.4218 
     28 C         -70.7160   26.6288  -75.5607 C.2       9 UNK         0.5020 
     29 O         -69.7964   26.8750  -74.7786 O.2       9 UNK        -0.5274 
     30 CA        -71.2795   25.1904  -75.6058 C.3       8 UNK         0.0270 
     31 CB        -71.7403   24.7370  -74.2093 C.3       8 UNK        -0.1976 
     32 N         -72.3775   25.0026  -76.5607 N.am      8 UNK        -0.4313 
     33 C         -72.2521   24.9622  -77.8948 C.2       8 UNK         0.5041 
     34 O         -71.1686   24.9812  -78.4791 O.2       8 UNK        -0.5577 
     35 CA        -73.5522   24.9610  -78.7205 C.3       7 UNK         0.0284 
     36 CB        -73.9949   23.5221  -79.0273 C.3       7 UNK        -0.1958 
     37 N         -74.6543   25.6937  -78.0837 N.am      7 UNK        -0.4454 
     38 C         -74.6467   27.0056  -77.7999 C.2       7 UNK         0.5089 
     39 O         -73.7090   27.7563  -78.0680 O.2       7 UNK        -0.5125 
     40 CA        -75.8537   27.5588  -77.0209 C.3       6 UNK         0.0408 
     41 CB        -77.0664   27.7730  -77.9398 C.3       6 UNK        -0.1791 
     42 N         -76.2161   26.6910  -75.8980 N.am      6 UNK        -0.4762 
     43 C         -75.4410   26.4975  -74.8193 C.2       6 UNK         0.5007 
     44 O         -74.3981   27.1211  -74.6174 O.2       6 UNK        -0.5032 
     45 CA        -75.8645   25.3731  -73.8502 C.3       5 UNK         0.0783 
     46 C46       -76.7598   25.8858  -72.6929 C.3       11 UNK        -0.0857 
     47 S47       -75.7698   26.2950  -71.2168 S.3       11 UNK        -0.2512 
     48 C48       -76.9938   27.1459  -70.1710 C.3       11 UNK         0.0225 
     49 N         -76.4892   24.2597  -74.5706 N.am      5 UNK        -0.4615 
     50 C         -75.8028   23.3532  -75.2810 C.2       4 UNK         0.5053 
     51 O         -74.5781   23.3644  -75.3898 O.2       4 UNK        -0.5105 
     52 CA        -76.6098   22.2705  -76.0196 C.3       4 UNK         0.0263 
     53 CB        -76.8396   21.0572  -75.1050 C.3       4 UNK        -0.1981 
     54 N         -77.8973   22.7527  -76.5215 N.am      4 UNK        -0.4224 
     55 C         -78.0454   23.7259  -77.4315 C.2       3 UNK         0.4895 
     56 O         -77.1042   24.2681  -78.0082 O.2       3 UNK        -0.5091 
     57 CA        -79.4769   24.2183  -77.7055 C.3       3 UNK         0.0250 
     58 CB        -80.0616   23.5088  -78.9367 C.3       3 UNK        -0.1996 
     59 N         -80.3904   24.0592  -76.5671 N.am      3 UNK        -0.4254 
     60 C         -80.2293   24.6353  -75.3673 C.2       2 UNK         0.5004 
     61 O         -79.2645   25.3437  -75.0671 O.2       2 UNK        -0.5226 
     62 CA        -81.2863   24.3101  -74.3025 C.3       2 UNK         0.0269 
     63 CB        -80.6747   23.4508  -73.1830 C.3       2 UNK        -0.1926 
     64 N         -81.8367   25.5323  -73.7223 N.am      2 UNK        -0.4687 
     65 C         -82.6912   26.3597  -74.3425 C.2       1 UNK         0.5165 
     66 O         -83.1460   26.1462  -75.4679 O.2       1 UNK        -0.5079 
     67 H67       -84.1158   27.1402  -69.2179 H         1 UNK         0.0900 
     68 H68       -82.4189   27.3931  -69.6300 H         1 UNK         0.0900 
     69 H69       -83.0625   25.7540  -69.5120 H         1 UNK         0.0900 
     70 H70       -82.1365   28.0309  -71.7584 H         1 UNK         0.2959 
     71 H71       -84.2038   27.7198  -73.7467 H         1 UNK         0.1079 
     72 H72       -82.7101   29.0097  -75.2140 H         1 UNK         0.0837 
     73 H73       -82.9158   29.7968  -73.6823 H         1 UNK         0.0837 
     74 H74       -81.2073   29.7071  -71.7203 H         1 UNK         0.0685 
     75 H75       -80.6841   31.0405  -72.7211 H         1 UNK         0.0685 
     76 H76       -79.4218   27.8338  -71.2177 H         1 UNK         0.1434 
     77 H77       -75.4919   29.3845  -70.4981 H         1 UNK         0.1329 
     78 H78       -78.4190   31.8068  -72.4879 H         1 UNK         0.1335 
     79 H79       -76.2512   32.7697  -71.3060 H         1 UNK         0.0680 
     80 H80       -74.9493   31.6408  -71.0271 H         1 UNK         0.0680 
     81 H81       -74.8979   30.1489  -74.7745 H         1 UNK         0.1032 
     82 H82       -74.9471   29.6059  -73.1372 H         1 UNK         0.1032 
     83 H83       -72.6894   31.4670  -73.9502 H         1 UNK         0.0461 
     84 H84       -72.2894   32.0015  -71.7584 H         1 UNK         0.3453 
     85 H85       -71.7917   30.8087  -70.5863 H         1 UNK         0.3453 
     86 H86       -72.9841   28.8245  -75.1114 H         1 UNK         0.2984 
     87 H87       -71.4659   29.3128  -77.3855 H         1 UNK         0.0554 
     88 H88       -69.1521   30.1016  -77.2840 H         1 UNK         0.0847 
     89 H89       -69.1671   28.4458  -77.8664 H         1 UNK         0.0847 
     90 H90       -68.6904   28.7974  -76.2051 H         1 UNK         0.0847 
     91 H91       -72.0283   27.2508  -76.9728 H         1 UNK         0.3141 
     92 H92       -70.4572   24.5410  -75.9127 H         1 UNK         0.0743 
     93 H93       -70.9163   24.7691  -73.4953 H         1 UNK         0.0784 
     94 H94       -72.5300   25.3779  -73.8180 H         1 UNK         0.0784 
     95 H95       -72.1114   23.7122  -74.2241 H         1 UNK         0.0784 
     96 H96       -73.3040   24.8879  -76.1655 H         1 UNK         0.3213 
     97 H97       -73.3365   25.4594  -79.6680 H         1 UNK         0.0855 
     98 H98       -74.2141   22.9660  -78.1162 H         1 UNK         0.0814 
     99 H99       -73.2127   22.9791  -79.5594 H         1 UNK         0.0814 
    100 H100      -74.8863   23.5045  -79.6546 H         1 UNK         0.0814 
    101 H101      -75.4996   25.1610  -77.8849 H         1 UNK         0.3105 
    102 H102      -75.5704   28.5314  -76.6135 H         1 UNK         0.0547 
    103 H103      -76.8249   28.4734  -78.7403 H         1 UNK         0.0837 
    104 H104      -77.3953   26.8471  -78.4104 H         1 UNK         0.0837 
    105 H105      -77.9114   28.1885  -77.3904 H         1 UNK         0.0837 
    106 H106      -77.0633   26.1455  -75.9869 H         1 UNK         0.3020 
    107 H107      -74.9409   24.9803  -73.4180 H         1 UNK         0.1245 
    108 H108      -77.4725   25.1178  -72.3878 H         1 UNK         0.0781 
    109 H109      -77.3643   26.7418  -73.0000 H         1 UNK         0.0781 
    110 H110      -77.8528   26.4917  -70.0134 H         1 UNK         0.0836 
    111 H111      -76.5577   27.3238  -69.1870 H         1 UNK         0.0836 
    112 H112      -77.5019   24.2495  -74.5895 H         1 UNK         0.3022 
    113 H113      -76.0196   21.9442  -76.8779 H         1 UNK         0.0747 
    114 H114      -75.8916   20.6644  -74.7343 H         1 UNK         0.0793 
    115 H115      -77.3372   20.2466  -75.6377 H         1 UNK         0.0793 
    116 H116      -77.4479   21.3134  -74.2365 H         1 UNK         0.0793 
    117 H117      -78.7279   22.3551  -76.1087 H         1 UNK         0.3047 
    118 H118      -79.4128   25.2862  -77.9246 H         1 UNK         0.0822 
    119 H119      -81.0360   23.9172  -79.2054 H         1 UNK         0.0807 
    120 H120      -80.1794   22.4375  -78.7691 H         1 UNK         0.0807 
    121 H121      -79.4110   23.6333  -79.8038 H         1 UNK         0.0807 
    122 H122      -81.2094   23.4897  -76.7274 H         1 UNK         0.2946 
    123 H123      -82.1035   23.7487  -74.7616 H         1 UNK         0.1144 
    124 H124      -80.2683   22.5199  -73.5808 H         1 UNK         0.0793 
    125 H125      -81.4225   23.1827  -72.4363 H         1 UNK         0.0793 
    126 H126      -79.8623   23.9690  -72.6716 H         1 UNK         0.0793 
    127 H127      -81.4881   25.8051  -72.8160 H         1 UNK         0.2896 
@<TRIPOS>BOND
     1    1    2 1    
     2    1   67 1    
     3    1   68 1    
     4    1   69 1    
     5    2    3 2    
     6    2    4 am   BACKBONE|DICT|INTERRES
     7    4    5 1    
     8    4   70 1    
     9    5    6 1    
    10    5   65 1    
    11    5   71 1    
    12    6    7 1    
    13    6   72 1    
    14    6   73 1    
    15    7    8 1    
    16    8    9 1    
    17    8   74 1    
    18    8   75 1    
    19    9   10 ar   
    20    9   14 ar   
    21   10   11 ar   
    22   10   76 1    
    23   11   12 ar   
    24   11   48 1    
    25   12   13 ar   
    26   12   77 1    
    27   13   14 ar   
    28   13   15 1    
    29   14   78 1    
    30   15   16 1    
    31   15   79 1    
    32   15   80 1    
    33   16   17 1    
    34   17   18 1    
    35   17   81 1    
    36   17   82 1    
    37   18   19 1    
    38   18   22 1    
    39   18   83 1    
    40   19   20 am   BACKBONE|DICT|INTERRES
    41   19   21 2    
    42   20   84 1    
    43   20   85 1    
    44   22   23 am   BACKBONE|DICT|INTERRES
    45   22   86 1    
    46   23   24 2    
    47   23   25 1    
    48   25   26 1    
    49   25   27 1    
    50   25   87 1    
    51   26   88 1    
    52   26   89 1    
    53   26   90 1    
    54   27   28 am   BACKBONE|DICT|INTERRES
    55   27   91 1    
    56   28   29 2    
    57   28   30 1    
    58   30   31 1    
    59   30   32 1    
    60   30   92 1    
    61   31   93 1    
    62   31   94 1    
    63   31   95 1    
    64   32   33 am   BACKBONE|DICT|INTERRES
    65   32   96 1    
    66   33   34 2    
    67   33   35 1    
    68   35   36 1    
    69   35   37 1    
    70   35   97 1    
    71   36   98 1    
    72   36   99 1    
    73   36  100 1    
    74   37   38 am   BACKBONE|DICT|INTERRES
    75   37  101 1    
    76   38   39 2    
    77   38   40 1    
    78   40   41 1    
    79   40   42 1    
    80   40  102 1    
    81   41  103 1    
    82   41  104 1    
    83   41  105 1    
    84   42   43 am   BACKBONE|DICT|INTERRES
    85   42  106 1    
    86   43   44 2    
    87   43   45 1    
    88   45   46 1    
    89   45   49 1    
    90   45  107 1    
    91   46   47 1    
    92   46  108 1    
    93   46  109 1    
    94   47   48 1    
    95   48  110 1    
    96   48  111 1    
    97   49   50 am   BACKBONE|DICT|INTERRES
    98   49  112 1    
    99   50   51 2    
   100   50   52 1    
   101   52   53 1    
   102   52   54 1    
   103   52  113 1    
   104   53  114 1    
   105   53  115 1    
   106   53  116 1    
   107   54   55 am   BACKBONE|DICT|INTERRES
   108   54  117 1    
   109   55   56 2    
   110   55   57 1    
   111   57   58 1    
   112   57   59 1    
   113   57  118 1    
   114   58  119 1    
   115   58  120 1    
   116   58  121 1    
   117   59   60 am   BACKBONE|DICT|INTERRES
   118   59  122 1    
   119   60   61 2    
   120   60   62 1    
   121   62   63 1    
   122   62   64 1    
   123   62  123 1    
   124   63  124 1    
   125   63  125 1    
   126   63  126 1    
   127   64   65 am   BACKBONE|DICT|INTERRES
   128   64  127 1    
   129   65   66 2    
@<TRIPOS>SUBSTRUCTURE
     1 UNK         1 GROUP             0       ****    0 ROOT    
