@<TRIPOS>MOLECULE
3R135
127   129    1
SMALL
USER_CHARGES


@<TRIPOS>ATOM
      1 CA        -82.4725   27.1032  -70.2389 C.3       0 UNK        -0.1998 
      2 C         -82.0677   26.9102  -71.6918 C.2       0 UNK         0.4909 
      3 O         -81.1130   26.1835  -71.9625 O.2       0 UNK        -0.5240 
      4 N         -82.7952   27.5449  -72.6219 N.am      1 UNK        -0.4739 
      5 CA        -82.6017   27.5897  -74.0845 C.3       1 UNK         0.0864 
      6 C6        -81.2460   28.1958  -74.5392 C.3       11 UNK        -0.0881 
      7 S7        -80.8872   29.8362  -73.8243 S.3       11 UNK        -0.2682 
      8 C8        -79.1175   30.0159  -74.2457 C.3       11 UNK         0.0289 
      9 C9        -78.1500   29.5531  -73.1543 C.ar      11 UNK        -0.0687 
     10 C10       -78.4181   28.4385  -72.3514 C.ar      11 UNK        -0.0823 
     11 C11       -77.5250   28.0355  -71.3567 C.ar      11 UNK        -0.0830 
     12 C12       -76.3447   28.7570  -71.1615 C.ar      11 UNK        -0.1021 
     13 C13       -76.0548   29.8691  -71.9572 C.ar      11 UNK        -0.0753 
     14 C14       -76.9562   30.2559  -72.9548 C.ar      11 UNK        -0.0933 
     15 C15       -74.7862   30.6721  -71.7123 C.3       11 UNK         0.0166 
     16 S16       -73.3180   29.8429  -72.3930 S.3       11 UNK        -0.2615 
     17 C17       -72.0301   31.0812  -72.0130 C.3       11 UNK        -0.0865 
     18 CA        -71.5668   31.8629  -73.2776 C.3       10 UNK         0.0862 
     19 C         -70.6998   33.1147  -72.9340 C.2       10 UNK         0.5551 
     20 N         -69.7679   33.5240  -73.7865 N.am      10 UNK        -0.7319 
     21 O         -70.8935   33.7473  -71.8985 O.2       10 UNK        -0.5018 
     22 N         -70.9997   30.9816  -74.3170 N.am      10 UNK        -0.4509 
     23 C         -69.8699   30.2693  -74.2217 C.2       10 UNK         0.4899 
     24 O         -69.1386   30.2562  -73.2301 O.2       10 UNK        -0.4839 
     25 CA        -69.5160   29.3997  -75.4394 C.3       9 UNK         0.0222 
     26 CB        -67.9962   29.2014  -75.5895 C.3       9 UNK        -0.1966 
     27 N         -70.1614   28.0928  -75.3254 N.am      9 UNK        -0.4218 
     28 C         -71.4472   27.8479  -75.6055 C.2       9 UNK         0.5020 
     29 O         -72.2262   28.6959  -76.0493 O.2       9 UNK        -0.5274 
     30 CA        -71.9372   26.4202  -75.3070 C.3       8 UNK         0.0270 
     31 CB        -72.3181   26.2821  -73.8239 C.3       8 UNK        -0.1976 
     32 N         -73.0808   26.0455  -76.1437 N.am      8 UNK        -0.4313 
     33 C         -72.9881   25.7654  -77.4530 C.2       8 UNK         0.5041 
     34 O         -71.9168   25.7497  -78.0631 O.2       8 UNK        -0.5577 
     35 CA        -74.2738   25.4109  -78.2281 C.3       7 UNK         0.0284 
     36 CB        -74.2871   23.9139  -78.5818 C.3       7 UNK        -0.1958 
     37 N         -75.5154   25.7408  -77.5276 N.am      7 UNK        -0.4454 
     38 C         -75.9855   26.9785  -77.3237 C.2       7 UNK         0.5089 
     39 O         -75.4613   27.9937  -77.7813 O.2       7 UNK        -0.5125 
     40 CA        -77.2477   27.1100  -76.4489 C.3       6 UNK         0.0408 
     41 CB        -78.4997   27.1963  -77.3340 C.3       6 UNK        -0.1791 
     42 N         -77.4202   26.0261  -75.4744 N.am      6 UNK        -0.4762 
     43 C         -76.5515   25.7240  -74.4963 C.2       6 UNK         0.5007 
     44 O         -75.4933   26.3246  -74.3211 O.2       6 UNK        -0.5032 
     45 CA        -76.8771   24.4962  -73.6284 C.3       5 UNK         0.0783 
     46 C46       -77.8592   24.8245  -72.4750 C.3       11 UNK        -0.0857 
     47 S47       -76.9699   25.3375  -70.9652 S.3       11 UNK        -0.2512 
     48 C48       -77.8564   26.8463  -70.4669 C.3       11 UNK         0.0225 
     49 N         -77.3569   23.3973  -74.4696 N.am      5 UNK        -0.4615 
     50 C         -76.5511   22.5263  -75.0932 C.2       4 UNK         0.5053 
     51 O         -75.3253   22.5283  -74.9817 O.2       4 UNK        -0.5105 
     52 CA        -77.2126   21.4730  -75.9999 C.3       4 UNK         0.0263 
     53 CB        -77.5001   20.1881  -75.2069 C.3       4 UNK        -0.1981 
     54 N         -78.4486   21.9373  -76.6328 N.am      4 UNK        -0.4224 
     55 C         -78.5139   22.9150  -77.5470 C.2       3 UNK         0.4895 
     56 O         -77.5334   23.5223  -77.9746 O.2       3 UNK        -0.5091 
     57 CA        -79.9183   23.3145  -78.0312 C.3       3 UNK         0.0250 
     58 CB        -80.3527   22.4282  -79.2093 C.3       3 UNK        -0.1996 
     59 N         -80.9502   23.2846  -76.9860 N.am      3 UNK        -0.4254 
     60 C         -80.8978   23.9703  -75.8359 C.2       2 UNK         0.5004 
     61 O         -79.9219   24.6355  -75.4752 O.2       2 UNK        -0.5226 
     62 CA        -82.1197   23.8676  -74.9108 C.3       2 UNK         0.0269 
     63 CB        -81.8979   22.7735  -73.8545 C.3       2 UNK        -0.1926 
     64 N         -82.3213   25.1458  -74.2340 N.am      2 UNK        -0.4687 
     65 C         -82.8220   26.2438  -74.8097 C.2       1 UNK         0.5165 
     66 O         -83.4083   26.2312  -75.8934 O.2       1 UNK        -0.5079 
     67 H67       -81.6474   27.5409  -69.6776 H         1 UNK         0.0900 
     68 H68       -83.3370   27.7592  -70.1387 H         1 UNK         0.0900 
     69 H69       -82.7200   26.1425  -69.7883 H         1 UNK         0.0900 
     70 H70       -83.5796   28.0964  -72.3027 H         1 UNK         0.2959 
     71 H71       -83.3870   28.2538  -74.4501 H         1 UNK         0.1079 
     72 H72       -81.2465   28.3185  -75.6240 H         1 UNK         0.0837 
     73 H73       -80.4265   27.5091  -74.3224 H         1 UNK         0.0837 
     74 H74       -78.9032   29.4800  -75.1701 H         1 UNK         0.0685 
     75 H75       -78.9440   31.0713  -74.4615 H         1 UNK         0.0685 
     76 H76       -79.3321   27.8845  -72.4828 H         1 UNK         0.1434 
     77 H77       -75.6514   28.4550  -70.3882 H         1 UNK         0.1329 
     78 H78       -76.7316   31.1165  -73.5700 H         1 UNK         0.1335 
     79 H79       -74.8736   31.6660  -72.1543 H         1 UNK         0.0680 
     80 H80       -74.6525   30.8210  -70.6396 H         1 UNK         0.0680 
     81 H81       -71.1860   30.5741  -71.5439 H         1 UNK         0.1032 
     82 H82       -72.4169   31.7641  -71.2546 H         1 UNK         0.1032 
     83 H83       -72.4643   32.2868  -73.7296 H         1 UNK         0.0461 
     84 H84       -69.6082   33.0234  -74.6458 H         1 UNK         0.3453 
     85 H85       -69.2184   34.3395  -73.5653 H         1 UNK         0.3453 
     86 H86       -71.5597   30.8731  -75.1521 H         1 UNK         0.2984 
     87 H87       -69.8745   29.9019  -76.3408 H         1 UNK         0.0554 
     88 H88       -67.4843   30.1620  -75.6614 H         1 UNK         0.0847 
     89 H89       -67.7573   28.6403  -76.4931 H         1 UNK         0.0847 
     90 H90       -67.5668   28.6673  -74.7409 H         1 UNK         0.0847 
     91 H91       -69.6029   27.3509  -74.9278 H         1 UNK         0.3141 
     92 H92       -71.1238   25.7222  -75.5173 H         1 UNK         0.0743 
     93 H93       -73.0833   27.0047  -73.5378 H         1 UNK         0.0784 
     94 H94       -72.6984   25.2853  -73.5995 H         1 UNK         0.0784 
     95 H95       -71.4563   26.4551  -73.1784 H         1 UNK         0.0784 
     96 H96       -73.9959   26.1004  -75.7075 H         1 UNK         0.3213 
     97 H97       -74.2515   25.9805  -79.1596 H         1 UNK         0.0855 
     98 H98       -74.3619   23.2904  -77.6898 H         1 UNK         0.0814 
     99 H99       -73.3762   23.6246  -79.1078 H         1 UNK         0.0814 
    100 H100      -75.1250   23.6683  -79.2343 H         1 UNK         0.0814 
    101 H101      -76.0701   24.9619  -77.1925 H         1 UNK         0.3105 
    102 H102      -77.1557   28.0388  -75.8834 H         1 UNK         0.0547 
    103 H103      -78.6019   26.3140  -77.9656 H         1 UNK         0.0837 
    104 H104      -78.4526   28.0647  -77.9923 H         1 UNK         0.0837 
    105 H105      -79.4066   27.2864  -76.7386 H         1 UNK         0.0837 
    106 H106      -78.2801   25.4841  -75.5430 H         1 UNK         0.3020 
    107 H107      -75.9325   24.1751  -73.1815 H         1 UNK         0.1245 
    108 H108      -78.4358   23.9384  -72.2051 H         1 UNK         0.0781 
    109 H109      -78.5990   25.5699  -72.7713 H         1 UNK         0.0781 
    110 H110      -77.5869   27.0840  -69.4368 H         1 UNK         0.0836 
    111 H111      -78.9296   26.6516  -70.4574 H         1 UNK         0.0836 
    112 H112      -78.3484   23.3866  -74.6718 H         1 UNK         0.3022 
    113 H113      -76.5016   21.2333  -76.7937 H         1 UNK         0.0747 
    114 H114      -77.8889   19.4008  -75.8531 H         1 UNK         0.0793 
    115 H115      -76.5898   19.8040  -74.7439 H         1 UNK         0.0793 
    116 H116      -78.2244   20.3581  -74.4091 H         1 UNK         0.0793 
    117 H117      -79.3086   21.4976  -76.3393 H         1 UNK         0.3047 
    118 H118      -79.8553   24.3431  -78.3901 H         1 UNK         0.0822 
    119 H119      -81.2941   22.7712  -79.6390 H         1 UNK         0.0807 
    120 H120      -80.4791   21.3872  -78.9089 H         1 UNK         0.0807 
    121 H121      -79.6093   22.4489  -80.0078 H         1 UNK         0.0807 
    122 H122      -81.7809   22.7486  -77.1937 H         1 UNK         0.2946 
    123 H123      -83.0078   23.6289  -75.5004 H         1 UNK         0.1144 
    124 H124      -81.7557   21.7983  -74.3220 H         1 UNK         0.0793 
    125 H125      -82.7553   22.6903  -73.1864 H         1 UNK         0.0793 
    126 H126      -81.0173   22.9762  -73.2429 H         1 UNK         0.0793 
    127 H127      -81.8029   25.2913  -73.3694 H         1 UNK         0.2896 
@<TRIPOS>BOND
     1    1    2 1    
     2    1   67 1    
     3    1   68 1    
     4    1   69 1    
     5    2    3 2    
     6    2    4 am   BACKBONE|DICT|INTERRES
     7    4    5 1    
     8    4   70 1    
     9    5    6 1    
    10    5   65 1    
    11    5   71 1    
    12    6    7 1    
    13    6   72 1    
    14    6   73 1    
    15    7    8 1    
    16    8    9 1    
    17    8   74 1    
    18    8   75 1    
    19    9   10 ar   
    20    9   14 ar   
    21   10   11 ar   
    22   10   76 1    
    23   11   12 ar   
    24   11   48 1    
    25   12   13 ar   
    26   12   77 1    
    27   13   14 ar   
    28   13   15 1    
    29   14   78 1    
    30   15   16 1    
    31   15   79 1    
    32   15   80 1    
    33   16   17 1    
    34   17   18 1    
    35   17   81 1    
    36   17   82 1    
    37   18   19 1    
    38   18   22 1    
    39   18   83 1    
    40   19   20 am   BACKBONE|DICT|INTERRES
    41   19   21 2    
    42   20   84 1    
    43   20   85 1    
    44   22   23 am   BACKBONE|DICT|INTERRES
    45   22   86 1    
    46   23   24 2    
    47   23   25 1    
    48   25   26 1    
    49   25   27 1    
    50   25   87 1    
    51   26   88 1    
    52   26   89 1    
    53   26   90 1    
    54   27   28 am   BACKBONE|DICT|INTERRES
    55   27   91 1    
    56   28   29 2    
    57   28   30 1    
    58   30   31 1    
    59   30   32 1    
    60   30   92 1    
    61   31   93 1    
    62   31   94 1    
    63   31   95 1    
    64   32   33 am   BACKBONE|DICT|INTERRES
    65   32   96 1    
    66   33   34 2    
    67   33   35 1    
    68   35   36 1    
    69   35   37 1    
    70   35   97 1    
    71   36   98 1    
    72   36   99 1    
    73   36  100 1    
    74   37   38 am   BACKBONE|DICT|INTERRES
    75   37  101 1    
    76   38   39 2    
    77   38   40 1    
    78   40   41 1    
    79   40   42 1    
    80   40  102 1    
    81   41  103 1    
    82   41  104 1    
    83   41  105 1    
    84   42   43 am   BACKBONE|DICT|INTERRES
    85   42  106 1    
    86   43   44 2    
    87   43   45 1    
    88   45   46 1    
    89   45   49 1    
    90   45  107 1    
    91   46   47 1    
    92   46  108 1    
    93   46  109 1    
    94   47   48 1    
    95   48  110 1    
    96   48  111 1    
    97   49   50 am   BACKBONE|DICT|INTERRES
    98   49  112 1    
    99   50   51 2    
   100   50   52 1    
   101   52   53 1    
   102   52   54 1    
   103   52  113 1    
   104   53  114 1    
   105   53  115 1    
   106   53  116 1    
   107   54   55 am   BACKBONE|DICT|INTERRES
   108   54  117 1    
   109   55   56 2    
   110   55   57 1    
   111   57   58 1    
   112   57   59 1    
   113   57  118 1    
   114   58  119 1    
   115   58  120 1    
   116   58  121 1    
   117   59   60 am   BACKBONE|DICT|INTERRES
   118   59  122 1    
   119   60   61 2    
   120   60   62 1    
   121   62   63 1    
   122   62   64 1    
   123   62  123 1    
   124   63  124 1    
   125   63  125 1    
   126   63  126 1    
   127   64   65 am   BACKBONE|DICT|INTERRES
   128   64  127 1    
   129   65   66 2    
@<TRIPOS>SUBSTRUCTURE
     1 UNK         1 GROUP             0       ****    0 ROOT    
