@<TRIPOS>MOLECULE
3R135
127   129    1
SMALL
USER_CHARGES


@<TRIPOS>ATOM
      1 CA        -77.2631   26.5863  -71.5481 C.3       0 UNK        -0.1998 
      2 C         -78.6419   26.3029  -72.1179 C.2       0 UNK         0.4909 
      3 O         -78.8773   26.5227  -73.3068 O.2       0 UNK        -0.5240 
      4 N         -79.5425   25.8124  -71.2568 N.am      1 UNK        -0.4739 
      5 CA        -80.9857   25.6630  -71.4864 C.3       1 UNK         0.0864 
      6 C6        -81.7173   27.0315  -71.5260 C.3       11 UNK        -0.0881 
      7 S7        -81.5337   27.8999  -69.9284 S.3       11 UNK        -0.2682 
      8 C8        -81.4698   29.6487  -70.4253 C.3       11 UNK         0.0289 
      9 C9        -80.1718   30.0407  -71.1228 C.ar      11 UNK        -0.0687 
     10 C10       -80.2067   30.5208  -72.4341 C.ar      11 UNK        -0.0823 
     11 C11       -79.0439   30.9835  -73.0538 C.ar      11 UNK        -0.0830 
     12 C12       -77.8385   30.9639  -72.3458 C.ar      11 UNK        -0.1021 
     13 C13       -77.7669   30.4347  -71.0502 C.ar      11 UNK        -0.0753 
     14 C14       -78.9481   29.9874  -70.4446 C.ar      11 UNK        -0.0933 
     15 C15       -76.4542   30.3284  -70.2605 C.3       11 UNK         0.0166 
     16 S16       -74.9244   30.8636  -71.1156 S.3       11 UNK        -0.2615 
     17 C17       -74.8160   29.7005  -72.5212 C.3       11 UNK        -0.0865 
     18 CA        -73.4796   28.9103  -72.5927 C.3       10 UNK         0.0862 
     19 C         -73.4638   27.5929  -71.7656 C.2       10 UNK         0.5551 
     20 N         -72.6792   26.5921  -72.1503 N.am      10 UNK        -0.7319 
     21 O         -74.1574   27.4705  -70.7603 O.2       10 UNK        -0.5018 
     22 N         -73.0570   28.6916  -73.9859 N.am      10 UNK        -0.4509 
     23 C         -72.1793   29.4489  -74.6545 C.2       10 UNK         0.4899 
     24 O         -71.7217   30.5035  -74.2110 O.2       10 UNK        -0.4839 
     25 CA        -71.7199   28.9532  -76.0466 C.3       9 UNK         0.0222 
     26 CB        -70.2909   29.4267  -76.3871 C.3       9 UNK        -0.1966 
     27 N         -71.8287   27.5022  -76.2648 N.am      9 UNK        -0.4218 
     28 C         -71.2989   26.5177  -75.5195 C.2       9 UNK         0.5020 
     29 O         -70.6570   26.7141  -74.4860 O.2       9 UNK        -0.5274 
     30 CA        -71.5486   25.0700  -75.9779 C.3       8 UNK         0.0270 
     31 CB        -71.8129   24.1238  -74.7908 C.3       8 UNK        -0.1976 
     32 N         -72.6644   24.9705  -76.9240 N.am      8 UNK        -0.4313 
     33 C         -72.6516   24.2269  -78.0378 C.2       8 UNK         0.5041 
     34 O         -71.6744   23.5758  -78.4111 O.2       8 UNK        -0.5577 
     35 CA        -73.9342   24.1748  -78.8861 C.3       7 UNK         0.0284 
     36 CB        -74.7421   22.9033  -78.5763 C.3       7 UNK        -0.1958 
     37 N         -74.8058   25.3468  -78.7642 N.am      7 UNK        -0.4454 
     38 C         -74.5294   26.5466  -79.2950 C.2       7 UNK         0.5089 
     39 O         -73.4443   26.8416  -79.7955 O.2       7 UNK        -0.5125 
     40 CA        -75.6580   27.5863  -79.2767 C.3       6 UNK         0.0408 
     41 CB        -76.7473   27.2237  -80.2998 C.3       6 UNK        -0.1791 
     42 N         -76.2545   27.6867  -77.9476 N.am      6 UNK        -0.4762 
     43 C         -75.8905   28.5853  -77.0223 C.2       6 UNK         0.5007 
     44 O         -75.0435   29.4585  -77.2110 O.2       6 UNK        -0.5032 
     45 CA        -76.5565   28.4594  -75.6339 C.3       5 UNK         0.0783 
     46 C46       -77.9167   29.1998  -75.5876 C.3       11 UNK        -0.0857 
     47 S47       -77.7182   31.0136  -75.5379 S.3       11 UNK        -0.2512 
     48 C48       -79.1126   31.5293  -74.4777 C.3       11 UNK         0.0225 
     49 N         -76.6959   27.0652  -75.2026 N.am      5 UNK        -0.4615 
     50 C         -75.7047   26.1665  -75.1308 C.2       4 UNK         0.5053 
     51 O         -74.5162   26.4591  -75.2441 O.2       4 UNK        -0.5105 
     52 CA        -76.0926   24.6834  -74.9970 C.3       4 UNK         0.0263 
     53 CB        -75.7895   24.1182  -73.6005 C.3       4 UNK        -0.1981 
     54 N         -77.4829   24.3981  -75.3643 N.am      4 UNK        -0.4224 
     55 C         -78.0089   24.5461  -76.5887 C.2       3 UNK         0.4895 
     56 O         -77.3515   24.9337  -77.5573 O.2       3 UNK        -0.5091 
     57 CA        -79.5190   24.2898  -76.7661 C.3       3 UNK         0.0250 
     58 CB        -79.7961   23.3624  -77.9673 C.3       3 UNK        -0.1996 
     59 N         -80.2244   23.8276  -75.5595 N.am      3 UNK        -0.4254 
     60 C         -80.0793   22.6657  -74.9062 C.2       2 UNK         0.5004 
     61 O         -79.2710   21.7942  -75.2287 O.2       2 UNK        -0.5226 
     62 CA        -80.9602   22.4742  -73.6568 C.3       2 UNK         0.0269 
     63 CB        -80.7379   21.1085  -72.9789 C.3       2 UNK        -0.1926 
     64 N         -80.7439   23.5319  -72.6641 N.am      2 UNK        -0.4687 
     65 C         -81.3083   24.7476  -72.6874 C.2       1 UNK         0.5165 
     66 O         -82.0350   25.1372  -73.6044 O.2       1 UNK        -0.5079 
     67 H67       -77.2987   27.4776  -70.9262 H         1 UNK         0.0900 
     68 H68       -76.5381   26.7593  -72.3403 H         1 UNK         0.0900 
     69 H69       -76.9072   25.7579  -70.9363 H         1 UNK         0.0900 
     70 H70       -79.2507   25.6390  -70.3050 H         1 UNK         0.2959 
     71 H71       -81.3728   25.1232  -70.6202 H         1 UNK         0.1079 
     72 H72       -82.7845   26.8998  -71.7140 H         1 UNK         0.0837 
     73 H73       -81.3325   27.6498  -72.3391 H         1 UNK         0.0837 
     74 H74       -82.3353   29.8683  -71.0525 H         1 UNK         0.0685 
     75 H75       -81.5808   30.2646  -69.5319 H         1 UNK         0.0685 
     76 H76       -81.1483   30.5600  -72.9648 H         1 UNK         0.1434 
     77 H77       -76.9571   31.3583  -72.8264 H         1 UNK         0.1329 
     78 H78       -78.9202   29.6046  -69.4333 H         1 UNK         0.1335 
     79 H79       -76.3133   29.3006  -69.9258 H         1 UNK         0.0680 
     80 H80       -76.5532   30.9296  -69.3557 H         1 UNK         0.0680 
     81 H81       -75.6733   29.0263  -72.5287 H         1 UNK         0.1032 
     82 H82       -74.9173   30.3236  -73.4106 H         1 UNK         0.1032 
     83 H83       -72.7122   29.5180  -72.1100 H         1 UNK         0.0461 
     84 H84       -72.0454   26.7007  -72.9333 H         1 UNK         0.3453 
     85 H85       -72.6636   25.7469  -71.6033 H         1 UNK         0.3453 
     86 H86       -73.3973   27.8368  -74.4190 H         1 UNK         0.2984 
     87 H87       -72.3963   29.4159  -76.7656 H         1 UNK         0.0554 
     88 H88       -69.9906   29.1007  -77.3828 H         1 UNK         0.0847 
     89 H89       -69.5603   29.0431  -75.6739 H         1 UNK         0.0847 
     90 H90       -70.2204   30.5150  -76.3724 H         1 UNK         0.0847 
     91 H91       -72.3479   27.2302  -77.0876 H         1 UNK         0.3141 
     92 H92       -70.6212   24.7563  -76.4612 H         1 UNK         0.0743 
     93 H93       -72.7042   24.4187  -74.2375 H         1 UNK         0.0784 
     94 H94       -71.9520   23.0961  -75.1265 H         1 UNK         0.0784 
     95 H95       -70.9769   24.1221  -74.0903 H         1 UNK         0.0784 
     96 H96       -73.5079   25.4690  -76.6574 H         1 UNK         0.3213 
     97 H97       -73.6162   24.1134  -79.9295 H         1 UNK         0.0855 
     98 H98       -74.1334   22.0100  -78.7227 H         1 UNK         0.0814 
     99 H99       -75.6081   22.8141  -79.2326 H         1 UNK         0.0814 
    100 H100      -75.1009   22.8848  -77.5484 H         1 UNK         0.0814 
    101 H101      -75.7312   25.1891  -78.3682 H         1 UNK         0.3105 
    102 H102      -75.2352   28.5491  -79.5720 H         1 UNK         0.0547 
    103 H103      -77.5199   27.9916  -80.3414 H         1 UNK         0.0837 
    104 H104      -76.3265   27.1345  -81.3022 H         1 UNK         0.0837 
    105 H105      -77.2326   26.2756  -80.0642 H         1 UNK         0.0837 
    106 H106      -76.9071   26.9549  -77.6897 H         1 UNK         0.3020 
    107 H107      -75.8793   28.9307  -74.9259 H         1 UNK         0.1245 
    108 H108      -78.4669   28.8921  -74.6972 H         1 UNK         0.0781 
    109 H109      -78.5500   28.9289  -76.4345 H         1 UNK         0.0781 
    110 H110      -80.0419   31.2256  -74.9624 H         1 UNK         0.0836 
    111 H111      -79.1311   32.6188  -74.4309 H         1 UNK         0.0836 
    112 H112      -77.6344   26.7568  -74.9725 H         1 UNK         0.3022 
    113 H113      -75.4515   24.1520  -75.7002 H         1 UNK         0.0747 
    114 H114      -75.6583   23.0369  -73.6435 H         1 UNK         0.0793 
    115 H115      -76.5922   24.3150  -72.8942 H         1 UNK         0.0793 
    116 H116      -74.8721   24.5366  -73.1841 H         1 UNK         0.0793 
    117 H117      -78.0994   24.0965  -74.6243 H         1 UNK         0.3047 
    118 H118      -79.9518   25.2634  -77.0007 H         1 UNK         0.0822 
    119 H119      -79.3397   22.3807  -77.8374 H         1 UNK         0.0807 
    120 H120      -79.3931   23.7846  -78.8889 H         1 UNK         0.0807 
    121 H121      -80.8657   23.2188  -78.1200 H         1 UNK         0.0807 
    122 H122      -80.8860   24.4877  -75.1604 H         1 UNK         0.2946 
    123 H123      -81.9992   22.5093  -73.9940 H         1 UNK         0.1144 
    124 H124      -80.9252   20.2905  -73.6760 H         1 UNK         0.0793 
    125 H125      -79.7157   20.9988  -72.6142 H         1 UNK         0.0793 
    126 H126      -81.4125   20.9704  -72.1338 H         1 UNK         0.0793 
    127 H127      -80.1204   23.3112  -71.9004 H         1 UNK         0.2896 
@<TRIPOS>BOND
     1    1    2 1    
     2    1   67 1    
     3    1   68 1    
     4    1   69 1    
     5    2    3 2    
     6    2    4 am   BACKBONE|DICT|INTERRES
     7    4    5 1    
     8    4   70 1    
     9    5    6 1    
    10    5   65 1    
    11    5   71 1    
    12    6    7 1    
    13    6   72 1    
    14    6   73 1    
    15    7    8 1    
    16    8    9 1    
    17    8   74 1    
    18    8   75 1    
    19    9   10 ar   
    20    9   14 ar   
    21   10   11 ar   
    22   10   76 1    
    23   11   12 ar   
    24   11   48 1    
    25   12   13 ar   
    26   12   77 1    
    27   13   14 ar   
    28   13   15 1    
    29   14   78 1    
    30   15   16 1    
    31   15   79 1    
    32   15   80 1    
    33   16   17 1    
    34   17   18 1    
    35   17   81 1    
    36   17   82 1    
    37   18   19 1    
    38   18   22 1    
    39   18   83 1    
    40   19   20 am   BACKBONE|DICT|INTERRES
    41   19   21 2    
    42   20   84 1    
    43   20   85 1    
    44   22   23 am   BACKBONE|DICT|INTERRES
    45   22   86 1    
    46   23   24 2    
    47   23   25 1    
    48   25   26 1    
    49   25   27 1    
    50   25   87 1    
    51   26   88 1    
    52   26   89 1    
    53   26   90 1    
    54   27   28 am   BACKBONE|DICT|INTERRES
    55   27   91 1    
    56   28   29 2    
    57   28   30 1    
    58   30   31 1    
    59   30   32 1    
    60   30   92 1    
    61   31   93 1    
    62   31   94 1    
    63   31   95 1    
    64   32   33 am   BACKBONE|DICT|INTERRES
    65   32   96 1    
    66   33   34 2    
    67   33   35 1    
    68   35   36 1    
    69   35   37 1    
    70   35   97 1    
    71   36   98 1    
    72   36   99 1    
    73   36  100 1    
    74   37   38 am   BACKBONE|DICT|INTERRES
    75   37  101 1    
    76   38   39 2    
    77   38   40 1    
    78   40   41 1    
    79   40   42 1    
    80   40  102 1    
    81   41  103 1    
    82   41  104 1    
    83   41  105 1    
    84   42   43 am   BACKBONE|DICT|INTERRES
    85   42  106 1    
    86   43   44 2    
    87   43   45 1    
    88   45   46 1    
    89   45   49 1    
    90   45  107 1    
    91   46   47 1    
    92   46  108 1    
    93   46  109 1    
    94   47   48 1    
    95   48  110 1    
    96   48  111 1    
    97   49   50 am   BACKBONE|DICT|INTERRES
    98   49  112 1    
    99   50   51 2    
   100   50   52 1    
   101   52   53 1    
   102   52   54 1    
   103   52  113 1    
   104   53  114 1    
   105   53  115 1    
   106   53  116 1    
   107   54   55 am   BACKBONE|DICT|INTERRES
   108   54  117 1    
   109   55   56 2    
   110   55   57 1    
   111   57   58 1    
   112   57   59 1    
   113   57  118 1    
   114   58  119 1    
   115   58  120 1    
   116   58  121 1    
   117   59   60 am   BACKBONE|DICT|INTERRES
   118   59  122 1    
   119   60   61 2    
   120   60   62 1    
   121   62   63 1    
   122   62   64 1    
   123   62  123 1    
   124   63  124 1    
   125   63  125 1    
   126   63  126 1    
   127   64   65 am   BACKBONE|DICT|INTERRES
   128   64  127 1    
   129   65   66 2    
@<TRIPOS>SUBSTRUCTURE
     1 UNK         1 GROUP             0       ****    0 ROOT    
