@<TRIPOS>MOLECULE
3R135
127   129    1
SMALL
USER_CHARGES


@<TRIPOS>ATOM
      1 CA        -83.3903   23.0120  -71.3376 C.3       0 UNK        -0.1998 
      2 C         -83.3361   23.6918  -72.6971 C.2       0 UNK         0.4909 
      3 O         -84.0511   23.2888  -73.6142 O.2       0 UNK        -0.5240 
      4 N         -82.4803   24.7111  -72.8416 N.am      1 UNK        -0.4739 
      5 CA        -82.2969   25.5084  -74.0629 C.3       1 UNK         0.0864 
      6 C6        -81.9293   26.9773  -73.7201 C.3       11 UNK        -0.0881 
      7 S7        -80.3721   27.1721  -72.7818 S.3       11 UNK        -0.2682 
      8 C8        -80.3268   28.9891  -72.6154 C.3       11 UNK         0.0289 
      9 C9        -78.9445   29.5260  -72.2532 C.ar      11 UNK        -0.0687 
     10 C10       -78.3765   30.5653  -73.0021 C.ar      11 UNK        -0.0823 
     11 C11       -77.1230   31.0885  -72.6639 C.ar      11 UNK        -0.0830 
     12 C12       -76.4447   30.5680  -71.5565 C.ar      11 UNK        -0.1021 
     13 C13       -76.9904   29.5231  -70.8077 C.ar      11 UNK        -0.0753 
     14 C14       -78.2420   29.0092  -71.1588 C.ar      11 UNK        -0.0933 
     15 C15       -76.2488   28.9776  -69.5953 C.3       11 UNK         0.0166 
     16 S16       -75.0968   27.6362  -70.0334 S.3       11 UNK        -0.2615 
     17 C17       -73.6559   28.5498  -70.6959 C.3       11 UNK        -0.0865 
     18 CA        -73.4278   28.3031  -72.2159 C.3       10 UNK         0.0862 
     19 C         -72.3210   29.2197  -72.8265 C.2       10 UNK         0.5551 
     20 N         -71.6613   28.8159  -73.9079 N.am      10 UNK        -0.7319 
     21 O         -72.0608   30.3116  -72.3279 O.2       10 UNK        -0.5018 
     22 N         -73.2581   26.8757  -72.5333 N.am      10 UNK        -0.4509 
     23 C         -72.2047   26.1190  -72.2035 C.2       10 UNK         0.4899 
     24 O         -71.2450   26.5212  -71.5439 O.2       10 UNK        -0.4839 
     25 CA        -72.2003   24.6590  -72.6833 C.3       9 UNK         0.0222 
     26 CB        -72.8316   23.7551  -71.6116 C.3       9 UNK        -0.1966 
     27 N         -72.8346   24.3767  -73.9772 N.am      9 UNK        -0.4218 
     28 C         -72.6472   24.9929  -75.1551 C.2       9 UNK         0.5020 
     29 O         -72.0453   26.0593  -75.2981 O.2       9 UNK        -0.5274 
     30 CA        -73.1506   24.2384  -76.4008 C.3       8 UNK         0.0270 
     31 CB        -73.8068   22.8675  -76.0943 C.3       8 UNK        -0.1976 
     32 N         -74.0583   25.0636  -77.1977 N.am      8 UNK        -0.4313 
     33 C         -74.3529   24.8267  -78.4838 C.2       8 UNK         0.5041 
     34 O         -73.7720   23.9859  -79.1729 O.2       8 UNK        -0.5577 
     35 CA        -75.5053   25.6204  -79.1128 C.3       7 UNK         0.0284 
     36 CB        -76.8543   25.1841  -78.5136 C.3       7 UNK        -0.1958 
     37 N         -75.3459   27.0632  -78.9422 N.am      7 UNK        -0.4454 
     38 C         -75.1390   27.9320  -79.9413 C.2       7 UNK         0.5089 
     39 O         -74.9476   27.5925  -81.1100 O.2       7 UNK        -0.5125 
     40 CA        -75.1961   29.4378  -79.6151 C.3       6 UNK         0.0408 
     41 CB        -76.3844   30.0961  -80.3371 C.3       6 UNK        -0.1791 
     42 N         -75.3120   29.7200  -78.1829 N.am      6 UNK        -0.4762 
     43 C         -74.2741   29.8482  -77.3462 C.2       6 UNK         0.5007 
     44 O         -73.0975   29.7708  -77.7000 O.2       6 UNK        -0.5032 
     45 CA        -74.6072   30.0978  -75.8599 C.3       5 UNK         0.0783 
     46 C46       -74.7488   31.6183  -75.6055 C.3       11 UNK        -0.0857 
     47 S47       -74.7622   32.0496  -73.8345 S.3       11 UNK        -0.2512 
     48 C48       -76.5361   32.2610  -73.4473 C.3       11 UNK         0.0225 
     49 N         -75.7871   29.3686  -75.3755 N.am      5 UNK        -0.4615 
     50 C         -76.0419   28.0611  -75.5085 C.2       4 UNK         0.5053 
     51 O         -75.3106   27.2697  -76.1023 O.2       4 UNK        -0.5105 
     52 CA        -77.4012   27.6020  -74.9649 C.3       4 UNK         0.0263 
     53 CB        -78.5119   28.0228  -75.9433 C.3       4 UNK        -0.1981 
     54 N         -77.5304   26.1688  -74.6838 N.am      4 UNK        -0.4224 
     55 C         -76.7282   25.4417  -73.8912 C.2       3 UNK         0.4895 
     56 O         -75.6824   25.8636  -73.4042 O.2       3 UNK        -0.5091 
     57 CA        -77.1704   24.0131  -73.5229 C.3       3 UNK         0.0250 
     58 CB        -77.2798   23.8656  -71.9945 C.3       3 UNK        -0.1996 
     59 N         -78.4526   23.6278  -74.1106 N.am      3 UNK        -0.4254 
     60 C         -78.6294   23.1123  -75.3337 C.2       2 UNK         0.5004 
     61 O         -77.7113   22.8797  -76.1184 O.2       2 UNK        -0.5226 
     62 CA        -80.0812   22.8090  -75.7490 C.3       2 UNK         0.0269 
     63 CB        -80.3700   21.3036  -75.6336 C.3       2 UNK        -0.1926 
     64 N         -81.0683   23.5482  -74.9518 N.am      2 UNK        -0.4687 
     65 C         -81.3210   24.8593  -75.0769 C.2       1 UNK         0.5165 
     66 O         -80.7858   25.5529  -75.9420 O.2       1 UNK        -0.5079 
     67 H67       -83.1377   21.9565  -71.4346 H         1 UNK         0.0900 
     68 H68       -84.3951   23.0851  -70.9222 H         1 UNK         0.0900 
     69 H69       -82.6969   23.4632  -70.6281 H         1 UNK         0.0900 
     70 H70       -81.9068   24.9961  -72.0593 H         1 UNK         0.2959 
     71 H71       -83.2557   25.5454  -74.5852 H         1 UNK         0.1079 
     72 H72       -81.8719   27.5767  -74.6307 H         1 UNK         0.0837 
     73 H73       -82.7341   27.4211  -73.1319 H         1 UNK         0.0837 
     74 H74       -80.6665   29.4354  -73.5512 H         1 UNK         0.0685 
     75 H75       -81.0404   29.2944  -71.8492 H         1 UNK         0.0685 
     76 H76       -78.9214   30.9796  -73.8397 H         1 UNK         0.1434 
     77 H77       -75.4900   30.9865  -71.2710 H         1 UNK         0.1329 
     78 H78       -78.6750   28.2084  -70.5750 H         1 UNK         0.1335 
     79 H79       -76.9673   28.5900  -68.8714 H         1 UNK         0.0680 
     80 H80       -75.7123   29.7776  -69.0829 H         1 UNK         0.0680 
     81 H81       -73.7843   29.6136  -70.4949 H         1 UNK         0.1032 
     82 H82       -72.7727   28.2532  -70.1284 H         1 UNK         0.1032 
     83 H83       -74.3430   28.6033  -72.7275 H         1 UNK         0.0461 
     84 H84       -70.9424   29.4036  -74.2977 H         1 UNK         0.3453 
     85 H85       -71.8501   27.9059  -74.3151 H         1 UNK         0.3453 
     86 H86       -74.0417   26.4423  -73.0211 H         1 UNK         0.2984 
     87 H87       -71.1534   24.3689  -72.7903 H         1 UNK         0.0554 
     88 H88       -72.7166   22.6992  -71.8569 H         1 UNK         0.0847 
     89 H89       -73.8958   23.9616  -71.4927 H         1 UNK         0.0847 
     90 H90       -72.3609   23.9116  -70.6398 H         1 UNK         0.0847 
     91 H91       -73.3757   23.5259  -74.0071 H         1 UNK         0.3141 
     92 H92       -72.2569   24.0502  -76.9993 H         1 UNK         0.0743 
     93 H93       -73.1449   22.2200  -75.5175 H         1 UNK         0.0784 
     94 H94       -74.7426   22.9794  -75.5465 H         1 UNK         0.0784 
     95 H95       -74.0363   22.3245  -77.0111 H         1 UNK         0.0784 
     96 H96       -74.5182   25.8329  -76.7060 H         1 UNK         0.3213 
     97 H97       -75.5273   25.3657  -80.1747 H         1 UNK         0.0855 
     98 H98       -77.0055   24.1106  -78.6351 H         1 UNK         0.0814 
     99 H99       -77.6879   25.6864  -79.0042 H         1 UNK         0.0814 
    100 H100      -76.9164   25.3984  -77.4464 H         1 UNK         0.0814 
    101 H101      -75.4007   27.4092  -77.9888 H         1 UNK         0.3105 
    102 H102      -74.2790   29.8884  -80.0005 H         1 UNK         0.0547 
    103 H103      -76.3148   29.9546  -81.4165 H         1 UNK         0.0837 
    104 H104      -77.3375   29.6745  -80.0153 H         1 UNK         0.0837 
    105 H105      -76.4133   31.1707  -80.1568 H         1 UNK         0.0837 
    106 H106      -76.2465   29.7963  -77.8078 H         1 UNK         0.3020 
    107 H107      -73.7529   29.7273  -75.2960 H         1 UNK         0.1245 
    108 H108      -75.6374   32.0180  -76.0973 H         1 UNK         0.0781 
    109 H109      -73.9036   32.1551  -76.0420 H         1 UNK         0.0781 
    110 H110      -77.1025   32.4478  -74.3604 H         1 UNK         0.0836 
    111 H111      -76.6454   33.1596  -72.8387 H         1 UNK         0.0836 
    112 H112      -76.4441   29.9267  -74.8505 H         1 UNK         0.3022 
    113 H113      -77.5486   28.1056  -74.0120 H         1 UNK         0.0747 
    114 H114      -79.5002   27.8368  -75.5273 H         1 UNK         0.0793 
    115 H115      -78.4666   29.0881  -76.1722 H         1 UNK         0.0793 
    116 H116      -78.4422   27.4814  -76.8876 H         1 UNK         0.0793 
    117 H117      -78.3655   25.7260  -75.0387 H         1 UNK         0.3047 
    118 H118      -76.3956   23.3309  -73.8763 H         1 UNK         0.0822 
    119 H119      -77.5433   22.8466  -71.7105 H         1 UNK         0.0807 
    120 H120      -78.0319   24.5377  -71.5787 H         1 UNK         0.0807 
    121 H121      -76.3337   24.1004  -71.5055 H         1 UNK         0.0807 
    122 H122      -79.2729   23.7878  -73.5445 H         1 UNK         0.2946 
    123 H123      -80.1869   23.1024  -76.7963 H         1 UNK         0.1144 
    124 H124      -81.3737   21.0641  -75.9857 H         1 UNK         0.0793 
    125 H125      -80.2811   20.9518  -74.6050 H         1 UNK         0.0793 
    126 H126      -79.6698   20.7248  -76.2378 H         1 UNK         0.0793 
    127 H127      -81.5722   23.0329  -74.2438 H         1 UNK         0.2896 
@<TRIPOS>BOND
     1    1    2 1    
     2    1   67 1    
     3    1   68 1    
     4    1   69 1    
     5    2    3 2    
     6    2    4 am   BACKBONE|DICT|INTERRES
     7    4    5 1    
     8    4   70 1    
     9    5    6 1    
    10    5   65 1    
    11    5   71 1    
    12    6    7 1    
    13    6   72 1    
    14    6   73 1    
    15    7    8 1    
    16    8    9 1    
    17    8   74 1    
    18    8   75 1    
    19    9   10 ar   
    20    9   14 ar   
    21   10   11 ar   
    22   10   76 1    
    23   11   12 ar   
    24   11   48 1    
    25   12   13 ar   
    26   12   77 1    
    27   13   14 ar   
    28   13   15 1    
    29   14   78 1    
    30   15   16 1    
    31   15   79 1    
    32   15   80 1    
    33   16   17 1    
    34   17   18 1    
    35   17   81 1    
    36   17   82 1    
    37   18   19 1    
    38   18   22 1    
    39   18   83 1    
    40   19   20 am   BACKBONE|DICT|INTERRES
    41   19   21 2    
    42   20   84 1    
    43   20   85 1    
    44   22   23 am   BACKBONE|DICT|INTERRES
    45   22   86 1    
    46   23   24 2    
    47   23   25 1    
    48   25   26 1    
    49   25   27 1    
    50   25   87 1    
    51   26   88 1    
    52   26   89 1    
    53   26   90 1    
    54   27   28 am   BACKBONE|DICT|INTERRES
    55   27   91 1    
    56   28   29 2    
    57   28   30 1    
    58   30   31 1    
    59   30   32 1    
    60   30   92 1    
    61   31   93 1    
    62   31   94 1    
    63   31   95 1    
    64   32   33 am   BACKBONE|DICT|INTERRES
    65   32   96 1    
    66   33   34 2    
    67   33   35 1    
    68   35   36 1    
    69   35   37 1    
    70   35   97 1    
    71   36   98 1    
    72   36   99 1    
    73   36  100 1    
    74   37   38 am   BACKBONE|DICT|INTERRES
    75   37  101 1    
    76   38   39 2    
    77   38   40 1    
    78   40   41 1    
    79   40   42 1    
    80   40  102 1    
    81   41  103 1    
    82   41  104 1    
    83   41  105 1    
    84   42   43 am   BACKBONE|DICT|INTERRES
    85   42  106 1    
    86   43   44 2    
    87   43   45 1    
    88   45   46 1    
    89   45   49 1    
    90   45  107 1    
    91   46   47 1    
    92   46  108 1    
    93   46  109 1    
    94   47   48 1    
    95   48  110 1    
    96   48  111 1    
    97   49   50 am   BACKBONE|DICT|INTERRES
    98   49  112 1    
    99   50   51 2    
   100   50   52 1    
   101   52   53 1    
   102   52   54 1    
   103   52  113 1    
   104   53  114 1    
   105   53  115 1    
   106   53  116 1    
   107   54   55 am   BACKBONE|DICT|INTERRES
   108   54  117 1    
   109   55   56 2    
   110   55   57 1    
   111   57   58 1    
   112   57   59 1    
   113   57  118 1    
   114   58  119 1    
   115   58  120 1    
   116   58  121 1    
   117   59   60 am   BACKBONE|DICT|INTERRES
   118   59  122 1    
   119   60   61 2    
   120   60   62 1    
   121   62   63 1    
   122   62   64 1    
   123   62  123 1    
   124   63  124 1    
   125   63  125 1    
   126   63  126 1    
   127   64   65 am   BACKBONE|DICT|INTERRES
   128   64  127 1    
   129   65   66 2    
@<TRIPOS>SUBSTRUCTURE
     1 UNK         1 GROUP             0       ****    0 ROOT    
