@<TRIPOS>MOLECULE
3R135
127   129    1
SMALL
USER_CHARGES


@<TRIPOS>ATOM
      1 CA        -84.5268   30.5248  -74.3700 C.3       0 UNK        -0.1998 
      2 C         -83.4350   29.5032  -74.0884 C.2       0 UNK         0.4909 
      3 O         -83.6303   28.6198  -73.2529 O.2       0 UNK        -0.5240 
      4 N         -82.2926   29.6249  -74.7790 N.am      1 UNK        -0.4739 
      5 CA        -81.1164   28.7485  -74.6882 C.3       1 UNK         0.0864 
      6 C6        -80.3935   28.8180  -73.3133 C.3       11 UNK        -0.0881 
      7 S7        -79.7990   30.4936  -72.8924 S.3       11 UNK        -0.2682 
      8 C8        -79.6912   30.4047  -71.0724 C.3       11 UNK         0.0289 
      9 C9        -78.6409   29.3996  -70.6190 C.ar      11 UNK        -0.0687 
     10 C10       -78.9926   28.0580  -70.4490 C.ar      11 UNK        -0.0823 
     11 C11       -78.0238   27.1061  -70.1293 C.ar      11 UNK        -0.0830 
     12 C12       -76.7098   27.5140  -69.8907 C.ar      11 UNK        -0.1021 
     13 C13       -76.3413   28.8486  -70.0682 C.ar      11 UNK        -0.0753 
     14 C14       -77.3122   29.7931  -70.4214 C.ar      11 UNK        -0.0933 
     15 C15       -74.8740   29.2297  -69.9617 C.3       11 UNK         0.0166 
     16 S16       -73.9851   28.7518  -71.4809 S.3       11 UNK        -0.2615 
     17 C17       -74.5300   30.0676  -72.6294 C.3       11 UNK        -0.0865 
     18 CA        -73.3898   30.7204  -73.4544 C.3       10 UNK         0.0862 
     19 C         -72.2319   31.2735  -72.5670 C.2       10 UNK         0.5551 
     20 N         -71.0144   30.7515  -72.6642 N.am      10 UNK        -0.7319 
     21 O         -72.4459   32.1989  -71.7875 O.2       10 UNK        -0.5018 
     22 N         -72.9795   29.8679  -74.5829 N.am      10 UNK        -0.4509 
     23 C         -72.2825   30.3103  -75.6395 C.2       10 UNK         0.4899 
     24 O         -71.9358   31.4849  -75.7759 O.2       10 UNK        -0.4839 
     25 CA        -71.9412   29.3034  -76.7532 C.3       9 UNK         0.0222 
     26 CB        -70.5788   29.5969  -77.4177 C.3       9 UNK        -0.1966 
     27 N         -72.0396   27.8926  -76.3637 N.am      9 UNK        -0.4218 
     28 C         -71.2807   27.2210  -75.4832 C.2       9 UNK         0.5020 
     29 O         -70.4118   27.7537  -74.7907 O.2       9 UNK        -0.5274 
     30 CA        -71.5168   25.7003  -75.3418 C.3       8 UNK         0.0270 
     31 CB        -71.9303   25.3397  -73.9042 C.3       8 UNK        -0.1976 
     32 N         -72.5086   25.1615  -76.2806 N.am      8 UNK        -0.4313 
     33 C         -72.3078   24.9668  -77.5922 C.2       8 UNK         0.5041 
     34 O         -71.2179   25.1165  -78.1452 O.2       8 UNK        -0.5577 
     35 CA        -73.5402   24.6037  -78.4433 C.3       7 UNK         0.0284 
     36 CB        -73.7167   23.0798  -78.5306 C.3       7 UNK        -0.1958 
     37 N         -74.7796   25.2287  -77.9620 N.am      7 UNK        -0.4454 
     38 C         -74.9983   26.5531  -77.9376 C.2       7 UNK         0.5089 
     39 O         -74.2008   27.3803  -78.3764 O.2       7 UNK        -0.5125 
     40 CA        -76.2829   27.0483  -77.2527 C.3       6 UNK         0.0408 
     41 CB        -77.4869   26.9547  -78.2022 C.3       6 UNK        -0.1791 
     42 N         -76.5667   26.3141  -76.0208 N.am      6 UNK        -0.4762 
     43 C         -75.8140   26.3396  -74.9123 C.2       6 UNK         0.5007 
     44 O         -74.8435   27.0842  -74.7688 O.2       6 UNK        -0.5032 
     45 CA        -76.1594   25.3109  -73.8154 C.3       5 UNK         0.0783 
     46 C46       -77.2169   25.8365  -72.8203 C.3       11 UNK        -0.0857 
     47 S47       -77.3693   24.7025  -71.3845 S.3       11 UNK        -0.2512 
     48 C48       -78.3723   25.6269  -70.1648 C.3       11 UNK         0.0225 
     49 N         -76.5720   24.0335  -74.3981 N.am      5 UNK        -0.4615 
     50 C         -75.7469   23.1504  -74.9668 C.2       4 UNK         0.5053 
     51 O         -74.5325   23.3188  -75.0659 O.2       4 UNK        -0.5105 
     52 CA        -76.3947   21.8771  -75.5378 C.3       4 UNK         0.0263 
     53 CB        -76.4980   20.7954  -74.4512 C.3       4 UNK        -0.1981 
     54 N         -77.7223   22.1224  -76.1125 N.am      4 UNK        -0.4224 
     55 C         -77.9341   22.8349  -77.2278 C.2       3 UNK         0.4895 
     56 O         -77.0320   23.3369  -77.8985 O.2       3 UNK        -0.5091 
     57 CA        -79.3998   23.0652  -77.6405 C.3       3 UNK         0.0250 
     58 CB        -79.9672   21.8204  -78.3416 C.3       3 UNK        -0.1996 
     59 N         -80.2934   23.4676  -76.5437 N.am      3 UNK        -0.4254 
     60 C         -80.0980   24.5304  -75.7506 C.2       2 UNK         0.5004 
     61 O         -79.0769   25.2166  -75.7754 O.2       2 UNK        -0.5226 
     62 CA        -81.2002   24.8729  -74.7338 C.3       2 UNK         0.0269 
     63 CB        -81.0431   24.0136  -73.4683 C.3       2 UNK        -0.1926 
     64 N         -81.1377   26.2888  -74.3531 N.am      2 UNK        -0.4687 
     65 C         -81.4597   27.3129  -75.1588 C.2       1 UNK         0.5165 
     66 O         -81.9942   27.1603  -76.2603 O.2       1 UNK        -0.5079 
     67 H67       -84.2217   31.2522  -75.1221 H         1 UNK         0.0900 
     68 H68       -85.4259   30.0238  -74.7278 H         1 UNK         0.0900 
     69 H69       -84.7777   31.0658  -73.4580 H         1 UNK         0.0900 
     70 H70       -82.2156   30.3641  -75.4635 H         1 UNK         0.2959 
     71 H71       -80.4119   29.1199  -75.4345 H         1 UNK         0.1079 
     72 H72       -81.0599   28.4703  -72.5232 H         1 UNK         0.0837 
     73 H73       -79.5181   28.1660  -73.3069 H         1 UNK         0.0837 
     74 H74       -80.6684   30.1470  -70.6608 H         1 UNK         0.0685 
     75 H75       -79.4489   31.3951  -70.6844 H         1 UNK         0.0685 
     76 H76       -80.0118   27.7445  -70.6236 H         1 UNK         0.1434 
     77 H77       -75.9530   26.7756  -69.6626 H         1 UNK         0.1329 
     78 H78       -77.0300   30.8248  -70.5792 H         1 UNK         0.1335 
     79 H79       -74.7543   30.2975  -69.7716 H         1 UNK         0.0680 
     80 H80       -74.4238   28.7148  -69.1116 H         1 UNK         0.0680 
     81 H81       -75.2893   29.6510  -73.2937 H         1 UNK         0.1032 
     82 H82       -75.0417   30.8481  -72.0650 H         1 UNK         0.1032 
     83 H83       -73.8323   31.6074  -73.9126 H         1 UNK         0.0461 
     84 H84       -70.8419   29.9854  -73.2982 H         1 UNK         0.3453 
     85 H85       -70.2695   31.1153  -72.0918 H         1 UNK         0.3453 
     86 H86       -73.2458   28.8925  -74.5359 H         1 UNK         0.2984 
     87 H87       -72.7067   29.4489  -77.5159 H         1 UNK         0.0554 
     88 H88       -70.3663   28.8866  -78.2169 H         1 UNK         0.0847 
     89 H89       -69.7592   29.5506  -76.7001 H         1 UNK         0.0847 
     90 H90       -70.5637   30.5929  -77.8618 H         1 UNK         0.0847 
     91 H91       -72.7518   27.3736  -76.8649 H         1 UNK         0.3141 
     92 H92       -70.5620   25.2118  -75.5468 H         1 UNK         0.0743 
     93 H93       -72.8450   25.8499  -73.6042 H         1 UNK         0.0784 
     94 H94       -72.0909   24.2672  -73.7922 H         1 UNK         0.0784 
     95 H95       -71.1550   25.6264  -73.1925 H         1 UNK         0.0784 
     96 H96       -73.4175   24.9273  -75.8964 H         1 UNK         0.3213 
     97 H97       -73.3586   24.9782  -79.4530 H         1 UNK         0.0855 
     98 H98       -73.8916   22.6343  -77.5521 H         1 UNK         0.0814 
     99 H99       -72.8249   22.6090  -78.9463 H         1 UNK         0.0814 
    100 H100      -74.5543   22.8129  -79.1754 H         1 UNK         0.0814 
    101 H101      -75.5209   24.6059  -77.6531 H         1 UNK         0.3105 
    102 H102      -76.1390   28.0982  -76.9888 H         1 UNK         0.0547 
    103 H103      -77.3102   27.5265  -79.1140 H         1 UNK         0.0837 
    104 H104      -77.6919   25.9252  -78.4964 H         1 UNK         0.0837 
    105 H105      -78.3892   27.3527  -77.7375 H         1 UNK         0.0837 
    106 H106      -77.4052   25.7327  -76.0190 H         1 UNK         0.3020 
    107 H107      -75.2354   25.1417  -73.2571 H         1 UNK         0.1245 
    108 H108      -78.1911   25.9478  -73.2978 H         1 UNK         0.0781 
    109 H109      -76.9231   26.8304  -72.4829 H         1 UNK         0.0781 
    110 H110      -78.2199   25.1949  -69.1749 H         1 UNK         0.0836 
    111 H111      -79.4267   25.4817  -70.4052 H         1 UNK         0.0836 
    112 H112      -77.5629   23.8445  -74.3979 H         1 UNK         0.3022 
    113 H113      -75.7453   21.5020  -76.3315 H         1 UNK         0.0747 
    114 H114      -76.8866   19.8610  -74.8567 H         1 UNK         0.0793 
    115 H115      -75.5177   20.5785  -74.0242 H         1 UNK         0.0793 
    116 H116      -77.1488   21.1040  -73.6319 H         1 UNK         0.0793 
    117 H117      -78.5187   21.7459  -75.6191 H         1 UNK         0.3047 
    118 H118      -79.3988   23.8841  -78.3630 H         1 UNK         0.0822 
    119 H119      -80.0521   20.9731  -77.6601 H         1 UNK         0.0807 
    120 H120      -79.3254   21.5110  -79.1680 H         1 UNK         0.0807 
    121 H121      -80.9552   22.0157  -78.7592 H         1 UNK         0.0807 
    122 H122      -81.1485   22.9390  -76.4449 H         1 UNK         0.2946 
    123 H123      -82.1735   24.6753  -75.1889 H         1 UNK         0.1144 
    124 H124      -81.1209   22.9509  -73.7017 H         1 UNK         0.0793 
    125 H125      -81.8204   24.2387  -72.7377 H         1 UNK         0.0793 
    126 H126      -80.0768   24.1709  -72.9875 H         1 UNK         0.0793 
    127 H127      -80.7036   26.4923  -73.4666 H         1 UNK         0.2896 
@<TRIPOS>BOND
     1    1    2 1    
     2    1   67 1    
     3    1   68 1    
     4    1   69 1    
     5    2    3 2    
     6    2    4 am   BACKBONE|DICT|INTERRES
     7    4    5 1    
     8    4   70 1    
     9    5    6 1    
    10    5   65 1    
    11    5   71 1    
    12    6    7 1    
    13    6   72 1    
    14    6   73 1    
    15    7    8 1    
    16    8    9 1    
    17    8   74 1    
    18    8   75 1    
    19    9   10 ar   
    20    9   14 ar   
    21   10   11 ar   
    22   10   76 1    
    23   11   12 ar   
    24   11   48 1    
    25   12   13 ar   
    26   12   77 1    
    27   13   14 ar   
    28   13   15 1    
    29   14   78 1    
    30   15   16 1    
    31   15   79 1    
    32   15   80 1    
    33   16   17 1    
    34   17   18 1    
    35   17   81 1    
    36   17   82 1    
    37   18   19 1    
    38   18   22 1    
    39   18   83 1    
    40   19   20 am   BACKBONE|DICT|INTERRES
    41   19   21 2    
    42   20   84 1    
    43   20   85 1    
    44   22   23 am   BACKBONE|DICT|INTERRES
    45   22   86 1    
    46   23   24 2    
    47   23   25 1    
    48   25   26 1    
    49   25   27 1    
    50   25   87 1    
    51   26   88 1    
    52   26   89 1    
    53   26   90 1    
    54   27   28 am   BACKBONE|DICT|INTERRES
    55   27   91 1    
    56   28   29 2    
    57   28   30 1    
    58   30   31 1    
    59   30   32 1    
    60   30   92 1    
    61   31   93 1    
    62   31   94 1    
    63   31   95 1    
    64   32   33 am   BACKBONE|DICT|INTERRES
    65   32   96 1    
    66   33   34 2    
    67   33   35 1    
    68   35   36 1    
    69   35   37 1    
    70   35   97 1    
    71   36   98 1    
    72   36   99 1    
    73   36  100 1    
    74   37   38 am   BACKBONE|DICT|INTERRES
    75   37  101 1    
    76   38   39 2    
    77   38   40 1    
    78   40   41 1    
    79   40   42 1    
    80   40  102 1    
    81   41  103 1    
    82   41  104 1    
    83   41  105 1    
    84   42   43 am   BACKBONE|DICT|INTERRES
    85   42  106 1    
    86   43   44 2    
    87   43   45 1    
    88   45   46 1    
    89   45   49 1    
    90   45  107 1    
    91   46   47 1    
    92   46  108 1    
    93   46  109 1    
    94   47   48 1    
    95   48  110 1    
    96   48  111 1    
    97   49   50 am   BACKBONE|DICT|INTERRES
    98   49  112 1    
    99   50   51 2    
   100   50   52 1    
   101   52   53 1    
   102   52   54 1    
   103   52  113 1    
   104   53  114 1    
   105   53  115 1    
   106   53  116 1    
   107   54   55 am   BACKBONE|DICT|INTERRES
   108   54  117 1    
   109   55   56 2    
   110   55   57 1    
   111   57   58 1    
   112   57   59 1    
   113   57  118 1    
   114   58  119 1    
   115   58  120 1    
   116   58  121 1    
   117   59   60 am   BACKBONE|DICT|INTERRES
   118   59  122 1    
   119   60   61 2    
   120   60   62 1    
   121   62   63 1    
   122   62   64 1    
   123   62  123 1    
   124   63  124 1    
   125   63  125 1    
   126   63  126 1    
   127   64   65 am   BACKBONE|DICT|INTERRES
   128   64  127 1    
   129   65   66 2    
@<TRIPOS>SUBSTRUCTURE
     1 UNK         1 GROUP             0       ****    0 ROOT    
