@<TRIPOS>MOLECULE
3R135
127   129    1
SMALL
USER_CHARGES


@<TRIPOS>ATOM
      1 CA        -82.7893   23.6133  -71.9808 C.3       0 UNK        -0.1998 
      2 C         -82.5367   24.5298  -73.1675 C.2       0 UNK         0.4909 
      3 O         -83.0732   24.2858  -74.2488 O.2       0 UNK        -0.5240 
      4 N         -81.7220   25.5769  -72.9729 N.am      1 UNK        -0.4739 
      5 CA        -81.3361   26.5831  -73.9709 C.3       1 UNK         0.0864 
      6 C6        -80.3668   27.6389  -73.3827 C.3       11 UNK        -0.0881 
      7 S7        -80.9961   28.4561  -71.8778 S.3       11 UNK        -0.2682 
      8 C8        -80.0038   29.9917  -71.8516 C.3       11 UNK         0.0289 
      9 C9        -78.5085   29.7595  -72.0589 C.ar      11 UNK        -0.0687 
     10 C10       -77.8289   28.7734  -71.3378 C.ar      11 UNK        -0.0823 
     11 C11       -76.4752   28.5249  -71.5750 C.ar      11 UNK        -0.0830 
     12 C12       -75.7885   29.2997  -72.5117 C.ar      11 UNK        -0.1021 
     13 C13       -76.4391   30.3221  -73.2150 C.ar      11 UNK        -0.0753 
     14 C14       -77.8025   30.5354  -72.9840 C.ar      11 UNK        -0.0933 
     15 C15       -75.7317   31.2195  -74.2343 C.3       11 UNK         0.0166 
     16 S16       -74.0276   30.7411  -74.6900 S.3       11 UNK        -0.2615 
     17 C17       -73.0413   31.5358  -73.3697 C.3       11 UNK        -0.0865 
     18 CA        -71.7872   30.7269  -72.9317 C.3       10 UNK         0.0862 
     19 C         -72.1179   29.6206  -71.8849 C.2       10 UNK         0.5551 
     20 N         -71.8192   28.3488  -72.1221 N.am      10 UNK        -0.7319 
     21 O         -72.6440   29.9300  -70.8191 O.2       10 UNK        -0.5018 
     22 N         -71.0054   30.2751  -74.0918 N.am      10 UNK        -0.4509 
     23 C         -69.7038   29.9654  -74.0843 C.2       10 UNK         0.4899 
     24 O         -68.9643   30.1440  -73.1151 O.2       10 UNK        -0.4839 
     25 CA        -69.1469   29.3399  -75.3823 C.3       9 UNK         0.0222 
     26 CB        -67.8075   28.6059  -75.1597 C.3       9 UNK        -0.1966 
     27 N         -70.1067   28.4586  -76.0665 N.am      9 UNK        -0.4218 
     28 C         -70.7286   27.3836  -75.5584 C.2       9 UNK         0.5020 
     29 O         -70.5741   26.9850  -74.4026 O.2       9 UNK        -0.5274 
     30 CA        -71.7240   26.6729  -76.4926 C.3       8 UNK         0.0270 
     31 CB        -72.3202   25.3983  -75.8656 C.3       8 UNK        -0.1976 
     32 N         -72.8079   27.5812  -76.8824 N.am      8 UNK        -0.4313 
     33 C         -72.7308   28.4621  -77.8917 C.2       8 UNK         0.5041 
     34 O         -71.7110   28.5987  -78.5711 O.2       8 UNK        -0.5577 
     35 CA        -73.9328   29.3874  -78.1728 C.3       7 UNK         0.0284 
     36 CB        -74.2690   29.4643  -79.6773 C.3       7 UNK        -0.1958 
     37 N         -75.1253   29.1061  -77.3655 N.am      7 UNK        -0.4454 
     38 C         -75.9497   28.0539  -77.4379 C.2       7 UNK         0.5089 
     39 O         -75.8578   27.1416  -78.2611 O.2       7 UNK        -0.5125 
     40 CA        -77.0532   28.0026  -76.3646 C.3       6 UNK         0.0408 
     41 CB        -78.4353   28.1055  -77.0225 C.3       6 UNK        -0.1791 
     42 N         -76.9583   26.7965  -75.5292 N.am      6 UNK        -0.4762 
     43 C         -75.8651   26.4864  -74.8109 C.2       6 UNK         0.5007 
     44 O         -74.8661   27.2076  -74.7815 O.2       6 UNK        -0.5032 
     45 CA        -75.8192   25.1536  -74.0404 C.3       5 UNK         0.0783 
     46 C46       -75.1782   25.2885  -72.6248 C.3       11 UNK        -0.0857 
     47 S47       -76.3351   25.7706  -71.2904 S.3       11 UNK        -0.2512 
     48 C48       -75.7578   27.4283  -70.8038 C.3       11 UNK         0.0225 
     49 N         -77.0861   24.4121  -74.0272 N.am      5 UNK        -0.4615 
     50 C         -77.1501   23.0866  -73.8513 C.2       4 UNK         0.5053 
     51 O         -76.1794   22.3362  -73.9587 O.2       4 UNK        -0.5105 
     52 CA        -78.4988   22.4975  -73.4208 C.3       4 UNK         0.0263 
     53 CB        -79.0654   23.2226  -72.1862 C.3       4 UNK        -0.1981 
     54 N         -79.4785   22.5275  -74.5062 N.am      4 UNK        -0.4224 
     55 C         -80.0935   21.4418  -75.0017 C.2       3 UNK         0.4895 
     56 O         -79.8326   20.2919  -74.6439 O.2       3 UNK        -0.5091 
     57 CA        -81.2105   21.6395  -76.0459 C.3       3 UNK         0.0250 
     58 CB        -82.5424   21.0629  -75.5334 C.3       3 UNK        -0.1996 
     59 N         -81.4180   23.0418  -76.4068 N.am      3 UNK        -0.4254 
     60 C         -80.7822   23.6707  -77.4042 C.2       2 UNK         0.5004 
     61 O         -79.9957   23.1161  -78.1720 O.2       2 UNK        -0.5226 
     62 CA        -81.0429   25.1801  -77.5612 C.3       2 UNK         0.0269 
     63 CB        -82.1118   25.4329  -78.6362 C.3       2 UNK        -0.1926 
     64 N         -81.4389   25.8566  -76.3195 N.am      2 UNK        -0.4687 
     65 C         -80.6970   25.9174  -75.2052 C.2       1 UNK         0.5165 
     66 O         -79.5644   25.4360  -75.1120 O.2       1 UNK        -0.5079 
     67 H67       -82.2494   23.9385  -71.0917 H         1 UNK         0.0900 
     68 H68       -82.4738   22.5978  -72.2182 H         1 UNK         0.0900 
     69 H69       -83.8526   23.5928  -71.7440 H         1 UNK         0.0900 
     70 H70       -81.3314   25.7294  -72.0541 H         1 UNK         0.2959 
     71 H71       -82.2475   27.0966  -74.2837 H         1 UNK         0.1079 
     72 H72       -79.4048   27.1845  -73.1351 H         1 UNK         0.0837 
     73 H73       -80.1575   28.4109  -74.1251 H         1 UNK         0.0837 
     74 H74       -80.3960   30.6629  -72.6173 H         1 UNK         0.0685 
     75 H75       -80.1545   30.4931  -70.8949 H         1 UNK         0.0685 
     76 H76       -78.3624   28.1733  -70.6133 H         1 UNK         0.1434 
     77 H77       -74.7460   29.0885  -72.6902 H         1 UNK         0.1329 
     78 H78       -78.3186   31.3108  -73.5338 H         1 UNK         0.1335 
     79 H79       -75.7262   32.2452  -73.8628 H         1 UNK         0.0680 
     80 H80       -76.3245   31.2348  -75.1497 H         1 UNK         0.0680 
     81 H81       -72.7218   32.5076  -73.7487 H         1 UNK         0.1032 
     82 H82       -73.6792   31.7590  -72.5120 H         1 UNK         0.1032 
     83 H83       -71.1529   31.4289  -72.3869 H         1 UNK         0.0461 
     84 H84       -72.0255   27.6603  -71.4180 H         1 UNK         0.3453 
     85 H85       -71.3678   28.0598  -72.9841 H         1 UNK         0.3453 
     86 H86       -71.5458   30.0820  -74.9220 H         1 UNK         0.2984 
     87 H87       -68.9589   30.1719  -76.0623 H         1 UNK         0.0554 
     88 H88       -67.4207   28.1934  -76.0914 H         1 UNK         0.0847 
     89 H89       -67.9102   27.7867  -74.4472 H         1 UNK         0.0847 
     90 H90       -67.0480   29.2839  -74.7683 H         1 UNK         0.0847 
     91 H91       -70.3469   28.7093  -77.0218 H         1 UNK         0.3141 
     92 H92       -71.1737   26.3667  -77.3849 H         1 UNK         0.0743 
     93 H93       -71.5407   24.6577  -75.6826 H         1 UNK         0.0784 
     94 H94       -72.7978   25.6027  -74.9076 H         1 UNK         0.0784 
     95 H95       -73.0589   24.9381  -76.5219 H         1 UNK         0.0784 
     96 H96       -73.6380   27.5676  -76.2946 H         1 UNK         0.3213 
     97 H97       -73.6067   30.3826  -77.8667 H         1 UNK         0.0855 
     98 H98       -75.1073   30.1353  -79.8642 H         1 UNK         0.0814 
     99 H99       -74.5206   28.4870  -80.0897 H         1 UNK         0.0814 
    100 H100      -73.4200   29.8434  -80.2476 H         1 UNK         0.0814 
    101 H101      -75.2614   29.7450  -76.5925 H         1 UNK         0.3105 
    102 H102      -76.9417   28.8601  -75.6991 H         1 UNK         0.0547 
    103 H103      -79.2312   28.1510  -76.2832 H         1 UNK         0.0837 
    104 H104      -78.5107   29.0109  -77.6261 H         1 UNK         0.0837 
    105 H105      -78.6218   27.2624  -77.6851 H         1 UNK         0.0837 
    106 H106      -77.7485   26.1615  -75.5456 H         1 UNK         0.3020 
    107 H107      -75.1204   24.5649  -74.6392 H         1 UNK         0.1245 
    108 H108      -74.3146   25.9559  -72.6332 H         1 UNK         0.0781 
    109 H109      -74.7699   24.3186  -72.3374 H         1 UNK         0.0781 
    110 H110      -75.9537   27.5647  -69.7394 H         1 UNK         0.0836 
    111 H111      -74.6757   27.5042  -70.9204 H         1 UNK         0.0836 
    112 H112      -77.9367   24.9606  -73.9840 H         1 UNK         0.3022 
    113 H113      -78.2986   21.4678  -73.1171 H         1 UNK         0.0747 
    114 H114      -78.3353   23.2390  -71.3757 H         1 UNK         0.0793 
    115 H115      -79.9524   22.7163  -71.8075 H         1 UNK         0.0793 
    116 H116      -79.3327   24.2567  -72.4015 H         1 UNK         0.0793 
    117 H117      -79.6895   23.4407  -74.8942 H         1 UNK         0.3047 
    118 H118      -80.9219   21.0737  -76.9343 H         1 UNK         0.0822 
    119 H119      -82.4523   19.9977  -75.3160 H         1 UNK         0.0807 
    120 H120      -83.3337   21.1734  -76.2750 H         1 UNK         0.0807 
    121 H121      -82.8709   21.5550  -74.6176 H         1 UNK         0.0807 
    122 H122      -82.0443   23.5749  -75.8089 H         1 UNK         0.2946 
    123 H123      -80.1063   25.6202  -77.9027 H         1 UNK         0.1144 
    124 H124      -82.2328   26.4983  -78.8334 H         1 UNK         0.0793 
    125 H125      -83.0825   25.0316  -78.3420 H         1 UNK         0.0793 
    126 H126      -81.8364   24.9604  -79.5803 H         1 UNK         0.0793 
    127 H127      -82.3757   26.2345  -76.2970 H         1 UNK         0.2896 
@<TRIPOS>BOND
     1    1    2 1    
     2    1   67 1    
     3    1   68 1    
     4    1   69 1    
     5    2    3 2    
     6    2    4 am   BACKBONE|DICT|INTERRES
     7    4    5 1    
     8    4   70 1    
     9    5    6 1    
    10    5   65 1    
    11    5   71 1    
    12    6    7 1    
    13    6   72 1    
    14    6   73 1    
    15    7    8 1    
    16    8    9 1    
    17    8   74 1    
    18    8   75 1    
    19    9   10 ar   
    20    9   14 ar   
    21   10   11 ar   
    22   10   76 1    
    23   11   12 ar   
    24   11   48 1    
    25   12   13 ar   
    26   12   77 1    
    27   13   14 ar   
    28   13   15 1    
    29   14   78 1    
    30   15   16 1    
    31   15   79 1    
    32   15   80 1    
    33   16   17 1    
    34   17   18 1    
    35   17   81 1    
    36   17   82 1    
    37   18   19 1    
    38   18   22 1    
    39   18   83 1    
    40   19   20 am   BACKBONE|DICT|INTERRES
    41   19   21 2    
    42   20   84 1    
    43   20   85 1    
    44   22   23 am   BACKBONE|DICT|INTERRES
    45   22   86 1    
    46   23   24 2    
    47   23   25 1    
    48   25   26 1    
    49   25   27 1    
    50   25   87 1    
    51   26   88 1    
    52   26   89 1    
    53   26   90 1    
    54   27   28 am   BACKBONE|DICT|INTERRES
    55   27   91 1    
    56   28   29 2    
    57   28   30 1    
    58   30   31 1    
    59   30   32 1    
    60   30   92 1    
    61   31   93 1    
    62   31   94 1    
    63   31   95 1    
    64   32   33 am   BACKBONE|DICT|INTERRES
    65   32   96 1    
    66   33   34 2    
    67   33   35 1    
    68   35   36 1    
    69   35   37 1    
    70   35   97 1    
    71   36   98 1    
    72   36   99 1    
    73   36  100 1    
    74   37   38 am   BACKBONE|DICT|INTERRES
    75   37  101 1    
    76   38   39 2    
    77   38   40 1    
    78   40   41 1    
    79   40   42 1    
    80   40  102 1    
    81   41  103 1    
    82   41  104 1    
    83   41  105 1    
    84   42   43 am   BACKBONE|DICT|INTERRES
    85   42  106 1    
    86   43   44 2    
    87   43   45 1    
    88   45   46 1    
    89   45   49 1    
    90   45  107 1    
    91   46   47 1    
    92   46  108 1    
    93   46  109 1    
    94   47   48 1    
    95   48  110 1    
    96   48  111 1    
    97   49   50 am   BACKBONE|DICT|INTERRES
    98   49  112 1    
    99   50   51 2    
   100   50   52 1    
   101   52   53 1    
   102   52   54 1    
   103   52  113 1    
   104   53  114 1    
   105   53  115 1    
   106   53  116 1    
   107   54   55 am   BACKBONE|DICT|INTERRES
   108   54  117 1    
   109   55   56 2    
   110   55   57 1    
   111   57   58 1    
   112   57   59 1    
   113   57  118 1    
   114   58  119 1    
   115   58  120 1    
   116   58  121 1    
   117   59   60 am   BACKBONE|DICT|INTERRES
   118   59  122 1    
   119   60   61 2    
   120   60   62 1    
   121   62   63 1    
   122   62   64 1    
   123   62  123 1    
   124   63  124 1    
   125   63  125 1    
   126   63  126 1    
   127   64   65 am   BACKBONE|DICT|INTERRES
   128   64  127 1    
   129   65   66 2    
@<TRIPOS>SUBSTRUCTURE
     1 UNK         1 GROUP             0       ****    0 ROOT    
