@<TRIPOS>MOLECULE
3R135
127   129    1
SMALL
USER_CHARGES


@<TRIPOS>ATOM
      1 CA        -79.0162   27.4814  -78.2586 C.3       0 UNK        -0.1998 
      2 C         -79.4916   26.7482  -77.0142 C.2       0 UNK         0.4909 
      3 O         -79.0607   25.6227  -76.7613 O.2       0 UNK        -0.5240 
      4 N         -80.3841   27.3745  -76.2316 N.am      1 UNK        -0.4739 
      5 CA        -80.9736   26.7856  -75.0191 C.3       1 UNK         0.0864 
      6 C6        -81.6381   27.8343  -74.0980 C.3       11 UNK        -0.0881 
      7 S7        -80.3823   28.9453  -73.3824 S.3       11 UNK        -0.2682 
      8 C8        -80.0706   28.1400  -71.7715 C.3       11 UNK         0.0289 
      9 C9        -78.6677   28.3753  -71.2093 C.ar      11 UNK        -0.0687 
     10 C10       -78.0479   27.3604  -70.4685 C.ar      11 UNK        -0.0823 
     11 C11       -76.7853   27.5594  -69.9007 C.ar      11 UNK        -0.0830 
     12 C12       -76.1403   28.7862  -70.0774 C.ar      11 UNK        -0.1021 
     13 C13       -76.7329   29.8029  -70.8285 C.ar      11 UNK        -0.0753 
     14 C14       -78.0015   29.5968  -71.3786 C.ar      11 UNK        -0.0933 
     15 C15       -76.0118   31.1312  -71.0210 C.3       11 UNK         0.0166 
     16 S16       -74.9089   31.1140  -72.4726 S.3       11 UNK        -0.2615 
     17 C17       -73.5811   29.9896  -71.9170 C.3       11 UNK        -0.0865 
     18 CA        -72.2322   30.2073  -72.6515 C.3       10 UNK         0.0862 
     19 C         -71.0893   29.3570  -72.0195 C.2       10 UNK         0.5551 
     20 N         -70.2950   28.6151  -72.7836 N.am      10 UNK        -0.7319 
     21 O         -70.9087   29.3809  -70.8046 O.2       10 UNK        -0.5018 
     22 N         -72.3610   30.0176  -74.1053 N.am      10 UNK        -0.4509 
     23 C         -71.7119   30.7467  -75.0216 C.2       10 UNK         0.4899 
     24 O         -70.9890   31.7055  -74.7439 O.2       10 UNK        -0.4839 
     25 CA        -71.8995   30.3354  -76.4959 C.3       9 UNK         0.0222 
     26 CB        -70.8176   30.9280  -77.4241 C.3       9 UNK        -0.1966 
     27 N         -72.0106   28.8855  -76.7004 N.am      9 UNK        -0.4218 
     28 C         -71.1131   27.9403  -76.3723 C.2       9 UNK         0.5020 
     29 O         -70.0567   28.1842  -75.7870 O.2       9 UNK        -0.5274 
     30 CA        -71.4529   26.4791  -76.7341 C.3       8 UNK         0.0270 
     31 CB        -70.9728   25.4964  -75.6494 C.3       8 UNK        -0.1976 
     32 N         -72.8923   26.3017  -76.9283 N.am      8 UNK        -0.4313 
     33 C         -73.5241   26.2312  -78.1089 C.2       8 UNK         0.5041 
     34 O         -72.9438   26.1882  -79.1938 O.2       8 UNK        -0.5577 
     35 CA        -75.0659   26.2602  -78.0823 C.3       7 UNK         0.0284 
     36 CB        -75.6405   24.8496  -78.2855 C.3       7 UNK        -0.1958 
     37 N         -75.6035   26.8423  -76.8461 N.am      7 UNK        -0.4454 
     38 C         -75.4830   28.1391  -76.5180 C.2       7 UNK         0.5089 
     39 O         -74.9955   28.9797  -77.2730 O.2       7 UNK        -0.5125 
     40 CA        -75.8891   28.5715  -75.0972 C.3       6 UNK         0.0408 
     41 CB        -77.2594   29.2566  -75.1004 C.3       6 UNK        -0.1791 
     42 N         -75.8737   27.4828  -74.1156 N.am      6 UNK        -0.4762 
     43 C         -74.7718   26.8139  -73.7478 C.2       6 UNK         0.5007 
     44 O         -73.6450   27.1182  -74.1416 O.2       6 UNK        -0.5032 
     45 CA        -74.9486   25.5815  -72.8350 C.3       5 UNK         0.0783 
     46 C46       -74.5035   25.8856  -71.3689 C.3       11 UNK        -0.0857 
     47 S47       -75.4940   25.0685  -70.0583 S.3       11 UNK        -0.2512 
     48 C48       -76.1187   26.4694  -69.0675 C.3       11 UNK         0.0225 
     49 N         -76.2677   24.9382  -72.9284 N.am      5 UNK        -0.4615 
     50 C         -76.8319   24.4175  -74.0245 C.2       4 UNK         0.5053 
     51 O         -76.3904   24.5838  -75.1616 O.2       4 UNK        -0.5105 
     52 CA        -78.0664   23.5336  -73.7946 C.3       4 UNK         0.0263 
     53 CB        -79.0230   24.0940  -72.7217 C.3       4 UNK        -0.1981 
     54 N         -78.7835   23.3073  -75.0523 N.am      4 UNK        -0.4224 
     55 C         -79.3297   22.1367  -75.4073 C.2       3 UNK         0.4895 
     56 O         -79.3205   21.1340  -74.6896 O.2       3 UNK        -0.5091 
     57 CA        -80.0544   22.0914  -76.7605 C.3       3 UNK         0.0250 
     58 CB        -80.4170   20.6566  -77.2021 C.3       3 UNK        -0.1996 
     59 N         -81.2513   22.9165  -76.6470 N.am      3 UNK        -0.4254 
     60 C         -81.9902   23.4018  -77.6498 C.2       2 UNK         0.5004 
     61 O         -81.8237   23.1118  -78.8348 O.2       2 UNK        -0.5226 
     62 CA        -83.0618   24.4421  -77.2703 C.3       2 UNK         0.0269 
     63 CB        -84.2483   23.8099  -76.5141 C.3       2 UNK        -0.1926 
     64 N         -82.4745   25.5871  -76.5569 N.am      2 UNK        -0.4687 
     65 C         -81.9198   25.6102  -75.3337 C.2       1 UNK         0.5165 
     66 O         -82.0466   24.7076  -74.5059 O.2       1 UNK        -0.5079 
     67 H67       -79.4033   28.4989  -78.3052 H         1 UNK         0.0900 
     68 H68       -77.9293   27.5327  -78.2765 H         1 UNK         0.0900 
     69 H69       -79.3439   26.9498  -79.1512 H         1 UNK         0.0900 
     70 H70       -80.6927   28.3081  -76.4645 H         1 UNK         0.2959 
     71 H71       -80.1473   26.3436  -74.4635 H         1 UNK         0.1079 
     72 H72       -82.3661   28.4296  -74.6518 H         1 UNK         0.0837 
     73 H73       -82.1918   27.3580  -73.2859 H         1 UNK         0.0837 
     74 H74       -80.8045   28.5021  -71.0506 H         1 UNK         0.0685 
     75 H75       -80.2442   27.0685  -71.8749 H         1 UNK         0.0685 
     76 H76       -78.5533   26.4162  -70.3177 H         1 UNK         0.1434 
     77 H77       -75.1696   28.9496  -69.6306 H         1 UNK         0.1329 
     78 H78       -78.4696   30.3951  -71.9372 H         1 UNK         0.1335 
     79 H79       -76.7418   31.9318  -71.1495 H         1 UNK         0.0680 
     80 H80       -75.4401   31.3864  -70.1275 H         1 UNK         0.0680 
     81 H81       -73.9215   28.9656  -72.0495 H         1 UNK         0.1032 
     82 H82       -73.4459   30.1324  -70.8436 H         1 UNK         0.1032 
     83 H83       -71.9466   31.2436  -72.4621 H         1 UNK         0.0461 
     84 H84       -70.3954   28.6004  -73.7917 H         1 UNK         0.3453 
     85 H85       -69.5605   28.0800  -72.3492 H         1 UNK         0.3453 
     86 H86       -72.8869   29.2038  -74.3973 H         1 UNK         0.2984 
     87 H87       -72.8582   30.7563  -76.8016 H         1 UNK         0.0554 
     88 H88       -69.8183   30.5912  -77.1458 H         1 UNK         0.0847 
     89 H89       -70.8169   32.0179  -77.3815 H         1 UNK         0.0847 
     90 H90       -70.9888   30.6478  -78.4633 H         1 UNK         0.0847 
     91 H91       -72.8715   28.5892  -77.1451 H         1 UNK         0.3141 
     92 H92       -70.9189   26.2485  -77.6579 H         1 UNK         0.0743 
     93 H93       -69.8882   25.5324  -75.5397 H         1 UNK         0.0784 
     94 H94       -71.4054   25.7254  -74.6749 H         1 UNK         0.0784 
     95 H95       -71.2361   24.4688  -75.9006 H         1 UNK         0.0784 
     96 H96       -73.4495   26.3703  -76.0838 H         1 UNK         0.3213 
     97 H97       -75.3959   26.8825  -78.9170 H         1 UNK         0.0855 
     98 H98       -75.2867   24.1553  -77.5228 H         1 UNK         0.0814 
     99 H99       -75.3437   24.4452  -79.2540 H         1 UNK         0.0814 
    100 H100      -76.7305   24.8544  -78.2546 H         1 UNK         0.0814 
    101 H101      -76.0023   26.1875  -76.1759 H         1 UNK         0.3105 
    102 H102      -75.1530   29.3115  -74.7805 H         1 UNK         0.0547 
    103 H103      -78.0634   28.5433  -75.2646 H         1 UNK         0.0837 
    104 H104      -77.3237   30.0145  -75.8823 H         1 UNK         0.0837 
    105 H105      -77.4455   29.7600  -74.1530 H         1 UNK         0.0837 
    106 H106      -76.7627   27.1837  -73.7417 H         1 UNK         0.3020 
    107 H107      -74.2501   24.8393  -73.2287 H         1 UNK         0.1245 
    108 H108      -74.4831   26.9541  -71.1672 H         1 UNK         0.0781 
    109 H109      -73.4668   25.5704  -71.2393 H         1 UNK         0.0781 
    110 H110      -75.2901   26.8822  -68.4898 H         1 UNK         0.0836 
    111 H111      -76.8330   26.0900  -68.3354 H         1 UNK         0.0836 
    112 H112      -76.6976   24.7561  -72.0322 H         1 UNK         0.3022 
    113 H113      -77.6766   22.5797  -73.4333 H         1 UNK         0.0747 
    114 H114      -79.9785   23.5688  -72.7225 H         1 UNK         0.0793 
    115 H115      -78.6021   23.9812  -71.7221 H         1 UNK         0.0793 
    116 H116      -79.2237   25.1525  -72.8685 H         1 UNK         0.0793 
    117 H117      -78.7851   24.0888  -75.7089 H         1 UNK         0.3047 
    118 H118      -79.3902   22.5339  -77.5062 H         1 UNK         0.0822 
    119 H119      -80.8516   20.6413  -78.2014 H         1 UNK         0.0807 
    120 H120      -81.1315   20.1942  -76.5201 H         1 UNK         0.0807 
    121 H121      -79.5305   20.0217  -77.2290 H         1 UNK         0.0807 
    122 H122      -81.4587   23.2603  -75.7128 H         1 UNK         0.2946 
    123 H123      -83.4536   24.8434  -78.2069 H         1 UNK         0.1144 
    124 H124      -85.0003   24.5577  -76.2629 H         1 UNK         0.0793 
    125 H125      -83.9425   23.3191  -75.5902 H         1 UNK         0.0793 
    126 H126      -84.7365   23.0536  -77.1301 H         1 UNK         0.0793 
    127 H127      -82.2794   26.3874  -77.1428 H         1 UNK         0.2896 
@<TRIPOS>BOND
     1    1    2 1    
     2    1   67 1    
     3    1   68 1    
     4    1   69 1    
     5    2    3 2    
     6    2    4 am   BACKBONE|DICT|INTERRES
     7    4    5 1    
     8    4   70 1    
     9    5    6 1    
    10    5   65 1    
    11    5   71 1    
    12    6    7 1    
    13    6   72 1    
    14    6   73 1    
    15    7    8 1    
    16    8    9 1    
    17    8   74 1    
    18    8   75 1    
    19    9   10 ar   
    20    9   14 ar   
    21   10   11 ar   
    22   10   76 1    
    23   11   12 ar   
    24   11   48 1    
    25   12   13 ar   
    26   12   77 1    
    27   13   14 ar   
    28   13   15 1    
    29   14   78 1    
    30   15   16 1    
    31   15   79 1    
    32   15   80 1    
    33   16   17 1    
    34   17   18 1    
    35   17   81 1    
    36   17   82 1    
    37   18   19 1    
    38   18   22 1    
    39   18   83 1    
    40   19   20 am   BACKBONE|DICT|INTERRES
    41   19   21 2    
    42   20   84 1    
    43   20   85 1    
    44   22   23 am   BACKBONE|DICT|INTERRES
    45   22   86 1    
    46   23   24 2    
    47   23   25 1    
    48   25   26 1    
    49   25   27 1    
    50   25   87 1    
    51   26   88 1    
    52   26   89 1    
    53   26   90 1    
    54   27   28 am   BACKBONE|DICT|INTERRES
    55   27   91 1    
    56   28   29 2    
    57   28   30 1    
    58   30   31 1    
    59   30   32 1    
    60   30   92 1    
    61   31   93 1    
    62   31   94 1    
    63   31   95 1    
    64   32   33 am   BACKBONE|DICT|INTERRES
    65   32   96 1    
    66   33   34 2    
    67   33   35 1    
    68   35   36 1    
    69   35   37 1    
    70   35   97 1    
    71   36   98 1    
    72   36   99 1    
    73   36  100 1    
    74   37   38 am   BACKBONE|DICT|INTERRES
    75   37  101 1    
    76   38   39 2    
    77   38   40 1    
    78   40   41 1    
    79   40   42 1    
    80   40  102 1    
    81   41  103 1    
    82   41  104 1    
    83   41  105 1    
    84   42   43 am   BACKBONE|DICT|INTERRES
    85   42  106 1    
    86   43   44 2    
    87   43   45 1    
    88   45   46 1    
    89   45   49 1    
    90   45  107 1    
    91   46   47 1    
    92   46  108 1    
    93   46  109 1    
    94   47   48 1    
    95   48  110 1    
    96   48  111 1    
    97   49   50 am   BACKBONE|DICT|INTERRES
    98   49  112 1    
    99   50   51 2    
   100   50   52 1    
   101   52   53 1    
   102   52   54 1    
   103   52  113 1    
   104   53  114 1    
   105   53  115 1    
   106   53  116 1    
   107   54   55 am   BACKBONE|DICT|INTERRES
   108   54  117 1    
   109   55   56 2    
   110   55   57 1    
   111   57   58 1    
   112   57   59 1    
   113   57  118 1    
   114   58  119 1    
   115   58  120 1    
   116   58  121 1    
   117   59   60 am   BACKBONE|DICT|INTERRES
   118   59  122 1    
   119   60   61 2    
   120   60   62 1    
   121   62   63 1    
   122   62   64 1    
   123   62  123 1    
   124   63  124 1    
   125   63  125 1    
   126   63  126 1    
   127   64   65 am   BACKBONE|DICT|INTERRES
   128   64  127 1    
   129   65   66 2    
@<TRIPOS>SUBSTRUCTURE
     1 UNK         1 GROUP             0       ****    0 ROOT    
