@<TRIPOS>MOLECULE
3R135
127   129    1
SMALL
USER_CHARGES


@<TRIPOS>ATOM
      1 CA        -80.7025   24.0467  -71.4100 C.3       0 UNK        -0.1998 
      2 C         -81.8482   24.8604  -71.9888 C.2       0 UNK         0.4909 
      3 O         -82.9943   24.4108  -71.9618 O.2       0 UNK        -0.5240 
      4 N         -81.5512   26.0645  -72.4948 N.am      1 UNK        -0.4739 
      5 CA        -82.5368   26.9901  -73.0689 C.3       1 UNK         0.0864 
      6 C6        -82.0335   28.4563  -73.0541 C.3       11 UNK        -0.0881 
      7 S7        -80.4530   28.7243  -73.9379 S.3       11 UNK        -0.2682 
      8 C8        -79.5725   29.8773  -72.8334 C.3       11 UNK         0.0289 
      9 C9        -78.2472   29.2942  -72.3683 C.ar      11 UNK        -0.0687 
     10 C10       -78.2214   28.3231  -71.3627 C.ar      11 UNK        -0.0823 
     11 C11       -77.0074   27.7750  -70.9368 C.ar      11 UNK        -0.0830 
     12 C12       -75.8150   28.2176  -71.5157 C.ar      11 UNK        -0.1021 
     13 C13       -75.8263   29.1862  -72.5224 C.ar      11 UNK        -0.0753 
     14 C14       -77.0465   29.7245  -72.9427 C.ar      11 UNK        -0.0933 
     15 C15       -74.5256   29.5964  -73.1966 C.3       11 UNK         0.0166 
     16 S16       -73.3307   30.3080  -72.0168 S.3       11 UNK        -0.2615 
     17 C17       -73.0231   31.9645  -72.7281 C.3       11 UNK        -0.0865 
     18 CA        -71.7929   32.0176  -73.6742 C.3       10 UNK         0.0862 
     19 C         -70.4395   31.9216  -72.9061 C.2       10 UNK         0.5551 
     20 N         -69.5720   30.9546  -73.1850 N.am      10 UNK        -0.7319 
     21 O         -70.1651   32.7568  -72.0477 O.2       10 UNK        -0.5018 
     22 N         -71.9404   31.0667  -74.7837 N.am      10 UNK        -0.4509 
     23 C         -71.3438   31.1611  -75.9761 C.2       10 UNK         0.4899 
     24 O         -70.6675   32.1284  -76.3291 O.2       10 UNK        -0.4839 
     25 CA        -71.5443   29.9648  -76.9280 C.3       9 UNK         0.0222 
     26 CB        -70.4509   29.8797  -78.0137 C.3       9 UNK        -0.1966 
     27 N         -71.6873   28.6725  -76.2398 N.am      9 UNK        -0.4218 
     28 C         -70.7948   28.0803  -75.4258 C.2       9 UNK         0.5020 
     29 O         -69.7440   28.6154  -75.0691 O.2       9 UNK        -0.5274 
     30 CA        -71.1163   26.6655  -74.8972 C.3       8 UNK         0.0270 
     31 CB        -71.3940   26.7043  -73.3849 C.3       8 UNK        -0.1976 
     32 N         -72.2391   26.0138  -75.5801 N.am      8 UNK        -0.4313 
     33 C         -72.2114   25.5803  -76.8513 C.2       8 UNK         0.5041 
     34 O         -71.1883   25.5624  -77.5366 O.2       8 UNK        -0.5577 
     35 CA        -73.5399   25.1253  -77.4935 C.3       7 UNK         0.0284 
     36 CB        -73.6013   23.5911  -77.5687 C.3       7 UNK        -0.1958 
     37 N         -74.7491   25.6122  -76.8227 N.am      7 UNK        -0.4454 
     38 C         -75.0614   26.8909  -76.5668 C.2       7 UNK         0.5089 
     39 O         -74.3891   27.8508  -76.9452 O.2       7 UNK        -0.5125 
     40 CA        -76.2859   27.1357  -75.6684 C.3       6 UNK         0.0408 
     41 CB        -77.5188   27.4285  -76.5298 C.3       6 UNK        -0.1791 
     42 N         -76.5865   26.0357  -74.7418 N.am      6 UNK        -0.4762 
     43 C         -75.7499   25.5048  -73.8358 C.2       6 UNK         0.5007 
     44 O         -74.5892   25.8883  -73.6830 O.2       6 UNK        -0.5032 
     45 CA        -76.2485   24.2770  -73.0403 C.3       5 UNK         0.0783 
     46 C46       -77.1164   24.6522  -71.8103 C.3       11 UNK        -0.0857 
     47 S47       -76.1202   25.1841  -70.3790 S.3       11 UNK        -0.2512 
     48 C48       -76.9851   26.7026  -69.8549 C.3       11 UNK         0.0225 
     49 N         -76.8780   23.2654  -73.9015 N.am      5 UNK        -0.4615 
     50 C         -78.0758   23.3351  -74.4941 C.2       4 UNK         0.5053 
     51 O         -78.8569   24.2818  -74.3673 O.2       4 UNK        -0.5105 
     52 CA        -78.4659   22.1393  -75.3742 C.3       4 UNK         0.0263 
     53 CB        -79.3488   21.1617  -74.5822 C.3       4 UNK        -0.1981 
     54 N         -79.1888   22.5808  -76.5646 N.am      4 UNK        -0.4224 
     55 C         -78.6624   23.2970  -77.5696 C.2       3 UNK         0.4895 
     56 O         -77.4660   23.5760  -77.6647 O.2       3 UNK        -0.5091 
     57 CA        -79.6527   23.8020  -78.6363 C.3       3 UNK         0.0250 
     58 CB        -79.8180   22.7646  -79.7584 C.3       3 UNK        -0.1996 
     59 N         -80.9650   24.1170  -78.0580 N.am      3 UNK        -0.4254 
     60 C         -81.1912   25.1790  -77.2716 C.2       2 UNK         0.5004 
     61 O         -80.3712   26.0820  -77.1074 O.2       2 UNK        -0.5226 
     62 CA        -82.5297   25.2486  -76.5221 C.3       2 UNK         0.0269 
     63 CB        -83.2902   23.9073  -76.4435 C.3       2 UNK        -0.1926 
     64 N         -82.2573   25.7364  -75.1720 N.am      2 UNK        -0.4687 
     65 C         -83.0407   26.5584  -74.4650 C.2       1 UNK         0.5165 
     66 O         -84.1315   26.9695  -74.8656 O.2       1 UNK        -0.5079 
     67 H67       -79.9285   24.6953  -71.0026 H         1 UNK         0.0900 
     68 H68       -81.0588   23.4079  -70.6023 H         1 UNK         0.0900 
     69 H69       -80.2629   23.4118  -72.1779 H         1 UNK         0.0900 
     70 H70       -80.5906   26.3755  -72.5338 H         1 UNK         0.2959 
     71 H71       -83.4187   26.9584  -72.4245 H         1 UNK         0.1079 
     72 H72       -82.7845   29.1246  -73.4799 H         1 UNK         0.0837 
     73 H73       -81.9264   28.7684  -72.0149 H         1 UNK         0.0837 
     74 H74       -80.1776   30.1393  -71.9652 H         1 UNK         0.0685 
     75 H75       -79.4079   30.8118  -73.3719 H         1 UNK         0.0685 
     76 H76       -79.1507   27.9907  -70.9208 H         1 UNK         0.1434 
     77 H77       -74.8736   27.7873  -71.2014 H         1 UNK         0.1329 
     78 H78       -77.0650   30.4656  -73.7299 H         1 UNK         0.1335 
     79 H79       -74.0817   28.7135  -73.6570 H         1 UNK         0.0680 
     80 H80       -74.7214   30.2915  -74.0140 H         1 UNK         0.0680 
     81 H81       -72.9008   32.6720  -71.9057 H         1 UNK         0.1032 
     82 H82       -73.9136   32.3049  -73.2584 H         1 UNK         0.1032 
     83 H83       -71.7908   33.0165  -74.1148 H         1 UNK         0.0461 
     84 H84       -68.7015   30.9178  -72.6795 H         1 UNK         0.3453 
     85 H85       -69.7684   30.2574  -73.8948 H         1 UNK         0.3453 
     86 H86       -72.4426   30.2200  -74.5664 H         1 UNK         0.2984 
     87 H87       -72.4952   30.1402  -77.4331 H         1 UNK         0.0554 
     88 H88       -70.4330   30.7823  -78.6258 H         1 UNK         0.0847 
     89 H89       -70.6236   29.0386  -78.6851 H         1 UNK         0.0847 
     90 H90       -69.4579   29.7625  -77.5782 H         1 UNK         0.0847 
     91 H91       -72.5523   28.1783  -76.4470 H         1 UNK         0.3141 
     92 H92       -70.2257   26.0552  -75.0604 H         1 UNK         0.0743 
     93 H93       -70.5488   27.1297  -72.8418 H         1 UNK         0.0784 
     94 H94       -72.2685   27.3093  -73.1470 H         1 UNK         0.0784 
     95 H95       -71.5635   25.7038  -72.9864 H         1 UNK         0.0784 
     96 H96       -73.1141   25.9700  -75.0645 H         1 UNK         0.3213 
     97 H97       -73.5548   25.5217  -78.5107 H         1 UNK         0.0855 
     98 H98       -73.6120   23.1391  -76.5761 H         1 UNK         0.0814 
     99 H99       -72.7369   23.1906  -78.1004 H         1 UNK         0.0814 
    100 H100      -74.4914   23.2544  -78.1013 H         1 UNK         0.0814 
    101 H101      -75.3949   24.9077  -76.4942 H         1 UNK         0.3105 
    102 H102      -76.0763   28.0195  -75.0678 H         1 UNK         0.0547 
    103 H103      -78.3891   27.6568  -75.9148 H         1 UNK         0.0837 
    104 H104      -77.7704   26.5795  -77.1664 H         1 UNK         0.0837 
    105 H105      -77.3485   28.2866  -77.1810 H         1 UNK         0.0837 
    106 H106      -77.5193   25.6351  -74.7953 H         1 UNK         0.3020 
    107 H107      -75.3489   23.7849  -72.6651 H         1 UNK         0.1245 
    108 H108      -77.6812   23.7798  -71.4791 H         1 UNK         0.0781 
    109 H109      -77.8592   25.4069  -72.0724 H         1 UNK         0.0781 
    110 H110      -76.4870   27.1046  -68.9717 H         1 UNK         0.0836 
    111 H111      -77.9974   26.4397  -69.5438 H         1 UNK         0.0836 
    112 H112      -76.3106   22.4476  -74.0767 H         1 UNK         0.3022 
    113 H113      -77.5621   21.6188  -75.6985 H         1 UNK         0.0747 
    114 H114      -79.6146   20.2910  -75.1819 H         1 UNK         0.0793 
    115 H115      -78.8295   20.7960  -73.6952 H         1 UNK         0.0793 
    116 H116      -80.2735   21.6335  -74.2462 H         1 UNK         0.0793 
    117 H117      -80.1855   22.4312  -76.5625 H         1 UNK         0.3047 
    118 H118      -79.2352   24.7129  -79.0714 H         1 UNK         0.0822 
    119 H119      -80.4682   23.1373  -80.5501 H         1 UNK         0.0807 
    120 H120      -80.2396   21.8288  -79.3891 H         1 UNK         0.0807 
    121 H121      -78.8554   22.5302  -80.2153 H         1 UNK         0.0807 
    122 H122      -81.6986   23.4335  -78.1785 H         1 UNK         0.2946 
    123 H123      -83.1461   25.9746  -77.0572 H         1 UNK         0.1144 
    124 H124      -82.6947   23.1304  -75.9623 H         1 UNK         0.0793 
    125 H125      -83.5788   23.5506  -77.4329 H         1 UNK         0.0793 
    126 H126      -84.2110   24.0148  -75.8696 H         1 UNK         0.0793 
    127 H127      -81.3434   25.5083  -74.8005 H         1 UNK         0.2896 
@<TRIPOS>BOND
     1    1    2 1    
     2    1   67 1    
     3    1   68 1    
     4    1   69 1    
     5    2    3 2    
     6    2    4 am   BACKBONE|DICT|INTERRES
     7    4    5 1    
     8    4   70 1    
     9    5    6 1    
    10    5   65 1    
    11    5   71 1    
    12    6    7 1    
    13    6   72 1    
    14    6   73 1    
    15    7    8 1    
    16    8    9 1    
    17    8   74 1    
    18    8   75 1    
    19    9   10 ar   
    20    9   14 ar   
    21   10   11 ar   
    22   10   76 1    
    23   11   12 ar   
    24   11   48 1    
    25   12   13 ar   
    26   12   77 1    
    27   13   14 ar   
    28   13   15 1    
    29   14   78 1    
    30   15   16 1    
    31   15   79 1    
    32   15   80 1    
    33   16   17 1    
    34   17   18 1    
    35   17   81 1    
    36   17   82 1    
    37   18   19 1    
    38   18   22 1    
    39   18   83 1    
    40   19   20 am   BACKBONE|DICT|INTERRES
    41   19   21 2    
    42   20   84 1    
    43   20   85 1    
    44   22   23 am   BACKBONE|DICT|INTERRES
    45   22   86 1    
    46   23   24 2    
    47   23   25 1    
    48   25   26 1    
    49   25   27 1    
    50   25   87 1    
    51   26   88 1    
    52   26   89 1    
    53   26   90 1    
    54   27   28 am   BACKBONE|DICT|INTERRES
    55   27   91 1    
    56   28   29 2    
    57   28   30 1    
    58   30   31 1    
    59   30   32 1    
    60   30   92 1    
    61   31   93 1    
    62   31   94 1    
    63   31   95 1    
    64   32   33 am   BACKBONE|DICT|INTERRES
    65   32   96 1    
    66   33   34 2    
    67   33   35 1    
    68   35   36 1    
    69   35   37 1    
    70   35   97 1    
    71   36   98 1    
    72   36   99 1    
    73   36  100 1    
    74   37   38 am   BACKBONE|DICT|INTERRES
    75   37  101 1    
    76   38   39 2    
    77   38   40 1    
    78   40   41 1    
    79   40   42 1    
    80   40  102 1    
    81   41  103 1    
    82   41  104 1    
    83   41  105 1    
    84   42   43 am   BACKBONE|DICT|INTERRES
    85   42  106 1    
    86   43   44 2    
    87   43   45 1    
    88   45   46 1    
    89   45   49 1    
    90   45  107 1    
    91   46   47 1    
    92   46  108 1    
    93   46  109 1    
    94   47   48 1    
    95   48  110 1    
    96   48  111 1    
    97   49   50 am   BACKBONE|DICT|INTERRES
    98   49  112 1    
    99   50   51 2    
   100   50   52 1    
   101   52   53 1    
   102   52   54 1    
   103   52  113 1    
   104   53  114 1    
   105   53  115 1    
   106   53  116 1    
   107   54   55 am   BACKBONE|DICT|INTERRES
   108   54  117 1    
   109   55   56 2    
   110   55   57 1    
   111   57   58 1    
   112   57   59 1    
   113   57  118 1    
   114   58  119 1    
   115   58  120 1    
   116   58  121 1    
   117   59   60 am   BACKBONE|DICT|INTERRES
   118   59  122 1    
   119   60   61 2    
   120   60   62 1    
   121   62   63 1    
   122   62   64 1    
   123   62  123 1    
   124   63  124 1    
   125   63  125 1    
   126   63  126 1    
   127   64   65 am   BACKBONE|DICT|INTERRES
   128   64  127 1    
   129   65   66 2    
@<TRIPOS>SUBSTRUCTURE
     1 UNK         1 GROUP             0       ****    0 ROOT    
