@<TRIPOS>MOLECULE
3R135
127   129    1
SMALL
USER_CHARGES


@<TRIPOS>ATOM
      1 CA        -83.9040   24.7907  -68.9715 C.3       0 UNK        -0.1998 
      2 C         -83.8835   25.3161  -70.3990 C.2       0 UNK         0.4909 
      3 O         -84.9231   25.3376  -71.0584 O.2       0 UNK        -0.5240 
      4 N         -82.7070   25.7384  -70.8827 N.am      1 UNK        -0.4739 
      5 CA        -82.5032   26.2652  -72.2404 C.3       1 UNK         0.0864 
      6 C6        -81.2042   27.1137  -72.3250 C.3       11 UNK        -0.0881 
      7 S7        -81.3516   28.4919  -73.5151 S.3       11 UNK        -0.2682 
      8 C8        -80.5183   29.8542  -72.6403 C.3       11 UNK         0.0289 
      9 C9        -79.0152   29.8742  -72.8916 C.ar      11 UNK        -0.0687 
     10 C10       -78.4640   30.8161  -73.7677 C.ar      11 UNK        -0.0823 
     11 C11       -77.0796   30.8934  -73.9548 C.ar      11 UNK        -0.0830 
     12 C12       -76.2463   30.0177  -73.2536 C.ar      11 UNK        -0.1021 
     13 C13       -76.7857   29.0416  -72.4112 C.ar      11 UNK        -0.0753 
     14 C14       -78.1701   28.9805  -72.2253 C.ar      11 UNK        -0.0933 
     15 C15       -75.8611   28.0647  -71.7028 C.3       11 UNK         0.0166 
     16 S16       -75.0788   26.9305  -72.8932 S.3       11 UNK        -0.2615 
     17 C17       -73.5161   26.5362  -72.0342 C.3       11 UNK        -0.0865 
     18 CA        -72.4553   27.6685  -72.1335 C.3       10 UNK         0.0862 
     19 C         -71.1252   27.2732  -71.4289 C.2       10 UNK         0.5551 
     20 N         -69.9687   27.3532  -72.0786 N.am      10 UNK        -0.7319 
     21 O         -71.1407   26.9025  -70.2575 O.2       10 UNK        -0.5018 
     22 N         -72.2672   28.1278  -73.5161 N.am      10 UNK        -0.4509 
     23 C         -72.0527   29.3981  -73.8812 C.2       10 UNK         0.4899 
     24 O         -72.0606   30.3441  -73.0918 O.2       10 UNK        -0.4839 
     25 CA        -71.7932   29.6646  -75.3784 C.3       9 UNK         0.0222 
     26 CB        -70.8892   30.8930  -75.6166 C.3       9 UNK        -0.1966 
     27 N         -71.2965   28.4932  -76.1138 N.am      9 UNK        -0.4218 
     28 C         -70.1506   27.8308  -75.8882 C.2       9 UNK         0.5020 
     29 O         -69.3392   28.1495  -75.0155 O.2       9 UNK        -0.5274 
     30 CA        -69.8955   26.5783  -76.7528 C.3       8 UNK         0.0270 
     31 CB        -68.6990   25.7443  -76.2474 C.3       8 UNK        -0.1976 
     32 N         -71.0737   25.7141  -76.9090 N.am      8 UNK        -0.4313 
     33 C         -71.8467   25.1963  -75.9434 C.2       8 UNK         0.5041 
     34 O         -71.7109   25.4546  -74.7472 O.2       8 UNK        -0.5577 
     35 CA        -72.9789   24.2544  -76.4038 C.3       7 UNK         0.0284 
     36 CB        -73.7528   23.6467  -75.2193 C.3       7 UNK        -0.1958 
     37 N         -73.9290   24.9399  -77.2809 N.am      7 UNK        -0.4454 
     38 C         -73.7159   25.2805  -78.5588 C.2       7 UNK         0.5089 
     39 O         -72.6993   24.9724  -79.1830 O.2       7 UNK        -0.5125 
     40 CA        -74.7898   26.1470  -79.2429 C.3       6 UNK         0.0408 
     41 CB        -75.7081   25.2730  -80.1109 C.3       6 UNK        -0.1791 
     42 N         -75.6137   26.9339  -78.3178 N.am      6 UNK        -0.4762 
     43 C         -75.1763   27.8602  -77.4524 C.2       6 UNK         0.5007 
     44 O         -73.9850   28.1467  -77.3309 O.2       6 UNK        -0.5032 
     45 CA        -76.2201   28.5499  -76.5417 C.3       5 UNK         0.0783 
     46 C46       -76.5184   30.0098  -76.9883 C.3       11 UNK        -0.0857 
     47 S47       -75.4068   31.2114  -76.1838 S.3       11 UNK        -0.2512 
     48 C48       -76.4886   31.9338  -74.9017 C.3       11 UNK         0.0225 
     49 N         -77.4444   27.7692  -76.3076 N.am      5 UNK        -0.4615 
     50 C         -78.4286   27.4837  -77.1676 C.2       4 UNK         0.5053 
     51 O         -78.3912   27.7817  -78.3618 O.2       4 UNK        -0.5105 
     52 CA        -79.6290   26.6987  -76.6049 C.3       4 UNK         0.0263 
     53 CB        -80.7546   26.5131  -77.6391 C.3       4 UNK        -0.1981 
     54 N         -79.2571   25.3843  -76.0740 N.am      4 UNK        -0.4224 
     55 C         -78.6167   25.1656  -74.9192 C.2       3 UNK         0.4895 
     56 O         -78.2101   26.0651  -74.1846 O.2       3 UNK        -0.5091 
     57 CA        -78.4769   23.6999  -74.4824 C.3       3 UNK         0.0250 
     58 CB        -77.3601   23.5045  -73.4402 C.3       3 UNK        -0.1996 
     59 N         -79.7479   23.2802  -73.9000 N.am      3 UNK        -0.4254 
     60 C         -80.8038   22.8334  -74.5931 C.2       2 UNK         0.5004 
     61 O         -80.7715   22.5513  -75.7914 O.2       2 UNK        -0.5226 
     62 CA        -82.1315   22.7533  -73.8213 C.3       2 UNK         0.0269 
     63 CB        -82.2277   21.4420  -73.0250 C.3       2 UNK        -0.1926 
     64 N         -82.2974   23.8959  -72.9154 N.am      2 UNK        -0.4687 
     65 C         -82.5219   25.1573  -73.3202 C.2       1 UNK         0.5165 
     66 O         -82.7285   25.4592  -74.4960 O.2       1 UNK        -0.5079 
     67 H67       -82.9192   24.8323  -68.5065 H         1 UNK         0.0900 
     68 H68       -84.2422   23.7549  -68.9578 H         1 UNK         0.0900 
     69 H69       -84.5900   25.3811  -68.3647 H         1 UNK         0.0900 
     70 H70       -81.8875   25.7025  -70.2926 H         1 UNK         0.2959 
     71 H71       -83.3537   26.9173  -72.4544 H         1 UNK         0.1079 
     72 H72       -80.9816   27.5407  -71.3465 H         1 UNK         0.0837 
     73 H73       -80.3337   26.5067  -72.5803 H         1 UNK         0.0837 
     74 H74       -80.9629   30.7922  -72.9763 H         1 UNK         0.0685 
     75 H75       -80.7186   29.8021  -71.5694 H         1 UNK         0.0685 
     76 H76       -79.1152   31.5015  -74.2928 H         1 UNK         0.1434 
     77 H77       -75.1741   30.0725  -73.3884 H         1 UNK         0.1329 
     78 H78       -78.5897   28.2386  -71.5610 H         1 UNK         0.1335 
     79 H79       -76.4014   27.4796  -70.9572 H         1 UNK         0.0680 
     80 H80       -75.1040   28.6330  -71.1626 H         1 UNK         0.0680 
     81 H81       -73.1231   25.6147  -72.4671 H         1 UNK         0.1032 
     82 H82       -73.7380   26.3062  -70.9905 H         1 UNK         0.1032 
     83 H83       -72.8374   28.5065  -71.5496 H         1 UNK         0.0461 
     84 H84       -69.1178   27.0986  -71.6037 H         1 UNK         0.3453 
     85 H85       -69.9360   27.6516  -73.0465 H         1 UNK         0.3453 
     86 H86       -72.1907   27.3861  -74.2040 H         1 UNK         0.2984 
     87 H87       -72.7672   29.8962  -75.8071 H         1 UNK         0.0554 
     88 H88       -70.7314   31.0693  -76.6804 H         1 UNK         0.0847 
     89 H89       -69.9127   30.7761  -75.1456 H         1 UNK         0.0847 
     90 H90       -71.3412   31.7964  -75.2053 H         1 UNK         0.0847 
     91 H91       -71.9456   28.1277  -76.8037 H         1 UNK         0.3141 
     92 H92       -69.6467   26.9446  -77.7498 H         1 UNK         0.0743 
     93 H93       -68.8705   25.3674  -75.2382 H         1 UNK         0.0784 
     94 H94       -68.5078   24.8898  -76.8964 H         1 UNK         0.0784 
     95 H95       -67.7861   26.3408  -76.2224 H         1 UNK         0.0784 
     96 H96       -71.3302   25.4772  -77.8644 H         1 UNK         0.3213 
     97 H97       -72.5165   23.4350  -76.9586 H         1 UNK         0.0855 
     98 H98       -74.2276   24.4195  -74.6140 H         1 UNK         0.0814 
     99 H99       -73.0849   23.0865  -74.5635 H         1 UNK         0.0814 
    100 H100      -74.5267   22.9577  -75.5578 H         1 UNK         0.0814 
    101 H101      -74.7766   25.2767  -76.8494 H         1 UNK         0.3105 
    102 H102      -74.2696   26.8515  -79.8949 H         1 UNK         0.0547 
    103 H103      -75.1297   24.6955  -80.8337 H         1 UNK         0.0837 
    104 H104      -76.2785   24.5645  -79.5089 H         1 UNK         0.0837 
    105 H105      -76.4159   25.8794  -80.6764 H         1 UNK         0.0837 
    106 H106      -76.6195   26.8328  -78.4007 H         1 UNK         0.3020 
    107 H107      -75.7489   28.5785  -75.5585 H         1 UNK         0.1245 
    108 H108      -77.5448   30.2870  -76.7432 H         1 UNK         0.0781 
    109 H109      -76.4454   30.1225  -78.0718 H         1 UNK         0.0781 
    110 H110      -77.2779   32.5045  -75.3936 H         1 UNK         0.0836 
    111 H111      -75.9104   32.6517  -74.3186 H         1 UNK         0.0836 
    112 H112      -77.5564   27.4102  -75.3606 H         1 UNK         0.3022 
    113 H113      -80.0343   27.2931  -75.7853 H         1 UNK         0.0747 
    114 H114      -81.6246   26.0312  -77.1918 H         1 UNK         0.0793 
    115 H115      -81.0869   27.4749  -78.0320 H         1 UNK         0.0793 
    116 H116      -80.4311   25.9067  -78.4860 H         1 UNK         0.0793 
    117 H117      -79.5866   24.5814  -76.5931 H         1 UNK         0.3047 
    118 H118      -78.2405   23.0917  -75.3585 H         1 UNK         0.0822 
    119 H119      -77.2411   22.4531  -73.1786 H         1 UNK         0.0807 
    120 H120      -77.5564   24.0591  -72.5215 H         1 UNK         0.0807 
    121 H121      -76.4035   23.8543  -73.8270 H         1 UNK         0.0807 
    122 H122      -79.8866   23.5091  -72.9269 H         1 UNK         0.2946 
    123 H123      -82.9420   22.7724  -74.5539 H         1 UNK         0.1144 
    124 H124      -82.1225   20.5788  -73.6838 H         1 UNK         0.0793 
    125 H125      -83.1934   21.3514  -72.5270 H         1 UNK         0.0793 
    126 H126      -81.4493   21.3683  -72.2645 H         1 UNK         0.0793 
    127 H127      -82.1759   23.7265  -71.9275 H         1 UNK         0.2896 
@<TRIPOS>BOND
     1    1    2 1    
     2    1   67 1    
     3    1   68 1    
     4    1   69 1    
     5    2    3 2    
     6    2    4 am   BACKBONE|DICT|INTERRES
     7    4    5 1    
     8    4   70 1    
     9    5    6 1    
    10    5   65 1    
    11    5   71 1    
    12    6    7 1    
    13    6   72 1    
    14    6   73 1    
    15    7    8 1    
    16    8    9 1    
    17    8   74 1    
    18    8   75 1    
    19    9   10 ar   
    20    9   14 ar   
    21   10   11 ar   
    22   10   76 1    
    23   11   12 ar   
    24   11   48 1    
    25   12   13 ar   
    26   12   77 1    
    27   13   14 ar   
    28   13   15 1    
    29   14   78 1    
    30   15   16 1    
    31   15   79 1    
    32   15   80 1    
    33   16   17 1    
    34   17   18 1    
    35   17   81 1    
    36   17   82 1    
    37   18   19 1    
    38   18   22 1    
    39   18   83 1    
    40   19   20 am   BACKBONE|DICT|INTERRES
    41   19   21 2    
    42   20   84 1    
    43   20   85 1    
    44   22   23 am   BACKBONE|DICT|INTERRES
    45   22   86 1    
    46   23   24 2    
    47   23   25 1    
    48   25   26 1    
    49   25   27 1    
    50   25   87 1    
    51   26   88 1    
    52   26   89 1    
    53   26   90 1    
    54   27   28 am   BACKBONE|DICT|INTERRES
    55   27   91 1    
    56   28   29 2    
    57   28   30 1    
    58   30   31 1    
    59   30   32 1    
    60   30   92 1    
    61   31   93 1    
    62   31   94 1    
    63   31   95 1    
    64   32   33 am   BACKBONE|DICT|INTERRES
    65   32   96 1    
    66   33   34 2    
    67   33   35 1    
    68   35   36 1    
    69   35   37 1    
    70   35   97 1    
    71   36   98 1    
    72   36   99 1    
    73   36  100 1    
    74   37   38 am   BACKBONE|DICT|INTERRES
    75   37  101 1    
    76   38   39 2    
    77   38   40 1    
    78   40   41 1    
    79   40   42 1    
    80   40  102 1    
    81   41  103 1    
    82   41  104 1    
    83   41  105 1    
    84   42   43 am   BACKBONE|DICT|INTERRES
    85   42  106 1    
    86   43   44 2    
    87   43   45 1    
    88   45   46 1    
    89   45   49 1    
    90   45  107 1    
    91   46   47 1    
    92   46  108 1    
    93   46  109 1    
    94   47   48 1    
    95   48  110 1    
    96   48  111 1    
    97   49   50 am   BACKBONE|DICT|INTERRES
    98   49  112 1    
    99   50   51 2    
   100   50   52 1    
   101   52   53 1    
   102   52   54 1    
   103   52  113 1    
   104   53  114 1    
   105   53  115 1    
   106   53  116 1    
   107   54   55 am   BACKBONE|DICT|INTERRES
   108   54  117 1    
   109   55   56 2    
   110   55   57 1    
   111   57   58 1    
   112   57   59 1    
   113   57  118 1    
   114   58  119 1    
   115   58  120 1    
   116   58  121 1    
   117   59   60 am   BACKBONE|DICT|INTERRES
   118   59  122 1    
   119   60   61 2    
   120   60   62 1    
   121   62   63 1    
   122   62   64 1    
   123   62  123 1    
   124   63  124 1    
   125   63  125 1    
   126   63  126 1    
   127   64   65 am   BACKBONE|DICT|INTERRES
   128   64  127 1    
   129   65   66 2    
@<TRIPOS>SUBSTRUCTURE
     1 UNK         1 GROUP             0       ****    0 ROOT    
