@<TRIPOS>MOLECULE
3R135
127   129    1
SMALL
USER_CHARGES


@<TRIPOS>ATOM
      1 CA        -83.6544   23.8538  -73.6920 C.3       0 UNK        -0.1998 
      2 C         -83.1541   25.2798  -73.8634 C.2       0 UNK         0.4909 
      3 O         -83.0873   25.7753  -74.9891 O.2       0 UNK        -0.5240 
      4 N         -82.8067   25.9472  -72.7556 N.am      1 UNK        -0.4739 
      5 CA        -82.2541   27.3056  -72.7396 C.3       1 UNK         0.0864 
      6 C6        -82.2852   27.9400  -71.3256 C.3       11 UNK        -0.0881 
      7 S7        -81.5042   26.9310  -70.0168 S.3       11 UNK        -0.2682 
      8 C8        -80.3640   28.1241  -69.2462 C.3       11 UNK         0.0289 
      9 C9        -79.0448   28.2453  -69.9975 C.ar      11 UNK        -0.0687 
     10 C10       -78.1091   27.2106  -69.9235 C.ar      11 UNK        -0.0823 
     11 C11       -76.8665   27.3321  -70.5488 C.ar      11 UNK        -0.0830 
     12 C12       -76.5609   28.4991  -71.2526 C.ar      11 UNK        -0.1021 
     13 C13       -77.4850   29.5490  -71.3388 C.ar      11 UNK        -0.0753 
     14 C14       -78.7303   29.4053  -70.7139 C.ar      11 UNK        -0.0933 
     15 C15       -77.1822   30.8617  -72.0664 C.3       11 UNK         0.0166 
     16 S16       -75.4424   31.1016  -72.5842 S.3       11 UNK        -0.2615 
     17 C17       -75.5218   31.0139  -74.4099 C.3       11 UNK        -0.0865 
     18 CA        -74.8935   29.7318  -75.0372 C.3       10 UNK         0.0862 
     19 C         -74.9809   29.7944  -76.5877 C.2       10 UNK         0.5551 
     20 N         -75.9580   29.1289  -77.1847 N.am      10 UNK        -0.7319 
     21 O         -74.2178   30.4875  -77.2561 O.2       10 UNK        -0.5018 
     22 N         -73.5313   29.4244  -74.5621 N.am      10 UNK        -0.4509 
     23 C         -72.4706   30.2457  -74.5339 C.2       10 UNK         0.4899 
     24 O         -72.4832   31.4189  -74.9077 O.2       10 UNK        -0.4839 
     25 CA        -71.1630   29.6909  -73.9393 C.3       9 UNK         0.0222 
     26 CB        -71.0158   30.1479  -72.4780 C.3       9 UNK        -0.1966 
     27 N         -71.0308   28.2324  -73.9948 N.am      9 UNK        -0.4218 
     28 C         -70.7886   27.5229  -75.1051 C.2       9 UNK         0.5020 
     29 O         -70.7067   28.0239  -76.2285 O.2       9 UNK        -0.5274 
     30 CA        -70.5566   26.0106  -74.9334 C.3       8 UNK         0.0270 
     31 CB        -71.0328   25.4457  -73.5774 C.3       8 UNK        -0.1976 
     32 N         -71.2416   25.2977  -76.0071 N.am      8 UNK        -0.4313 
     33 C         -70.6745   24.4592  -76.8842 C.2       8 UNK         0.5041 
     34 O         -69.4727   24.1859  -76.8854 O.2       8 UNK        -0.5577 
     35 CA        -71.5893   23.7765  -77.9232 C.3       7 UNK         0.0284 
     36 CB        -71.6136   22.2536  -77.7045 C.3       7 UNK        -0.1958 
     37 N         -72.9667   24.2736  -77.8951 N.am      7 UNK        -0.4454 
     38 C         -73.3902   25.3983  -78.4858 C.2       7 UNK         0.5089 
     39 O         -72.6880   26.0915  -79.2215 O.2       7 UNK        -0.5125 
     40 CA        -74.8336   25.8395  -78.1801 C.3       6 UNK         0.0408 
     41 CB        -75.7793   25.4406  -79.3229 C.3       6 UNK        -0.1791 
     42 N         -75.3666   25.3273  -76.9106 N.am      6 UNK        -0.4762 
     43 C         -74.8877   25.6207  -75.6906 C.2       6 UNK         0.5007 
     44 O         -73.9153   26.3548  -75.5108 O.2       6 UNK        -0.5032 
     45 CA        -75.5790   24.9651  -74.4787 C.3       5 UNK         0.0783 
     46 C46       -75.5032   25.8490  -73.2104 C.3       11 UNK        -0.0857 
     47 S47       -76.0861   24.9560  -71.7309 S.3       11 UNK        -0.2512 
     48 C48       -75.8430   26.2126  -70.4413 C.3       11 UNK         0.0225 
     49 N         -76.9642   24.6270  -74.8070 N.am      5 UNK        -0.4615 
     50 C         -77.4881   23.3958  -74.8152 C.2       4 UNK         0.5053 
     51 O         -76.8375   22.3730  -74.6003 O.2       4 UNK        -0.5105 
     52 CA        -78.9929   23.2756  -75.1189 C.3       4 UNK         0.0263 
     53 CB        -79.7780   22.9840  -73.8298 C.3       4 UNK        -0.1981 
     54 N         -79.5413   24.4722  -75.7648 N.am      4 UNK        -0.4224 
     55 C         -79.3162   24.7978  -77.0468 C.2       3 UNK         0.4895 
     56 O         -78.6825   24.0868  -77.8269 O.2       3 UNK        -0.5091 
     57 CA        -79.8488   26.1534  -77.5422 C.3       3 UNK         0.0250 
     58 CB        -81.2088   25.9755  -78.2352 C.3       3 UNK        -0.1996 
     59 N         -79.9690   27.1670  -76.4912 N.am      3 UNK        -0.4254 
     60 C         -78.9427   27.6894  -75.8039 C.2       2 UNK         0.5004 
     61 O         -77.7681   27.3608  -75.9638 O.2       2 UNK        -0.5226 
     62 CA        -79.2829   28.7392  -74.7345 C.3       2 UNK         0.0269 
     63 CB        -79.3370   30.1351  -75.3767 C.3       2 UNK        -0.1926 
     64 N         -80.5432   28.4871  -74.0287 N.am      2 UNK        -0.4687 
     65 C         -80.8502   27.3572  -73.3752 C.2       1 UNK         0.5165 
     66 O         -80.0939   26.3864  -73.2923 O.2       1 UNK        -0.5079 
     67 H67       -83.3874   23.4463  -72.7170 H         1 UNK         0.0900 
     68 H68       -83.2257   23.2080  -74.4576 H         1 UNK         0.0900 
     69 H69       -84.7390   23.8236  -73.7918 H         1 UNK         0.0900 
     70 H70       -82.8380   25.4869  -71.8568 H         1 UNK         0.2959 
     71 H71       -82.9083   27.9092  -73.3733 H         1 UNK         0.1079 
     72 H72       -81.8381   28.9356  -71.3465 H         1 UNK         0.0837 
     73 H73       -83.3235   28.0999  -71.0309 H         1 UNK         0.0837 
     74 H74       -80.8529   29.0947  -69.1489 H         1 UNK         0.0685 
     75 H75       -80.1569   27.7921  -68.2279 H         1 UNK         0.0685 
     76 H76       -78.3472   26.3123  -69.3702 H         1 UNK         0.1434 
     77 H77       -75.5923   28.5773  -71.7240 H         1 UNK         0.1329 
     78 H78       -79.4484   30.2124  -70.7643 H         1 UNK         0.1335 
     79 H79       -77.4335   31.6873  -71.3990 H         1 UNK         0.0680 
     80 H80       -77.8515   30.9559  -72.9192 H         1 UNK         0.0680 
     81 H81       -75.0232   31.9048  -74.7954 H         1 UNK         0.1032 
     82 H82       -76.5569   31.1156  -74.7327 H         1 UNK         0.1032 
     83 H83       -75.4993   28.8854  -74.7092 H         1 UNK         0.0461 
     84 H84       -76.0422   29.1918  -78.1858 H         1 UNK         0.3453 
     85 H85       -76.5754   28.5064  -76.6678 H         1 UNK         0.3453 
     86 H86       -73.3816   28.4589  -74.3065 H         1 UNK         0.2984 
     87 H87       -70.3387   30.1227  -74.5111 H         1 UNK         0.0554 
     88 H88       -70.0568   29.8438  -72.0584 H         1 UNK         0.0847 
     89 H89       -71.8067   29.7416  -71.8459 H         1 UNK         0.0847 
     90 H90       -71.0688   31.2351  -72.4023 H         1 UNK         0.0847 
     91 H91       -71.0800   27.7387  -73.1154 H         1 UNK         0.3141 
     92 H92       -69.4780   25.8575  -75.0045 H         1 UNK         0.0743 
     93 H93       -70.4733   25.8729  -72.7445 H         1 UNK         0.0784 
     94 H94       -72.0932   25.6345  -73.4068 H         1 UNK         0.0784 
     95 H95       -70.8825   24.3668  -73.5323 H         1 UNK         0.0784 
     96 H96       -72.2206   25.5436  -76.1181 H         1 UNK         0.3213 
     97 H97       -71.1617   23.9727  -78.9090 H         1 UNK         0.0855 
     98 H98       -70.6087   21.8333  -77.7666 H         1 UNK         0.0814 
     99 H99       -72.2174   21.7529  -78.4615 H         1 UNK         0.0814 
    100 H100      -72.0152   21.9919  -76.7248 H         1 UNK         0.0814 
    101 H101      -73.6249   23.7634  -77.3243 H         1 UNK         0.3105 
    102 H102      -74.8182   26.9272  -78.1180 H         1 UNK         0.0547 
    103 H103      -75.4167   25.8155  -80.2809 H         1 UNK         0.0837 
    104 H104      -75.8748   24.3577  -79.4098 H         1 UNK         0.0837 
    105 H105      -76.7765   25.8540  -79.1722 H         1 UNK         0.0837 
    106 H106      -76.1813   24.7315  -76.9699 H         1 UNK         0.3020 
    107 H107      -75.0076   24.0550  -74.2830 H         1 UNK         0.1245 
    108 H108      -76.1040   26.7490  -73.3490 H         1 UNK         0.0781 
    109 H109      -74.4817   26.1785  -73.0142 H         1 UNK         0.0781 
    110 H110      -74.8282   26.6095  -70.4998 H         1 UNK         0.0836 
    111 H111      -75.9234   25.7333  -69.4645 H         1 UNK         0.0836 
    112 H112      -77.5575   25.4169  -75.0324 H         1 UNK         0.3022 
    113 H113      -79.1241   22.4274  -75.7943 H         1 UNK         0.0747 
    114 H114      -80.8391   22.8484  -74.0332 H         1 UNK         0.0793 
    115 H115      -79.4210   22.0689  -73.3555 H         1 UNK         0.0793 
    116 H116      -79.6724   23.7878  -73.1004 H         1 UNK         0.0793 
    117 H117      -80.0303   25.1285  -75.1671 H         1 UNK         0.3047 
    118 H118      -79.1363   26.5294  -78.2795 H         1 UNK         0.0822 
    119 H119      -81.5582   26.9111  -78.6721 H         1 UNK         0.0807 
    120 H120      -81.9723   25.6223  -77.5408 H         1 UNK         0.0807 
    121 H121      -81.1422   25.2469  -79.0446 H         1 UNK         0.0807 
    122 H122      -80.9031   27.4794  -76.2669 H         1 UNK         0.2946 
    123 H123      -78.4792   28.7161  -73.9953 H         1 UNK         0.1144 
    124 H124      -79.4665   30.9177  -74.6298 H         1 UNK         0.0793 
    125 H125      -80.1596   30.2181  -76.0883 H         1 UNK         0.0793 
    126 H126      -78.4199   30.3533  -75.9247 H         1 UNK         0.0793 
    127 H127      -81.2222   29.2346  -74.0514 H         1 UNK         0.2896 
@<TRIPOS>BOND
     1    1    2 1    
     2    1   67 1    
     3    1   68 1    
     4    1   69 1    
     5    2    3 2    
     6    2    4 am   BACKBONE|DICT|INTERRES
     7    4    5 1    
     8    4   70 1    
     9    5    6 1    
    10    5   65 1    
    11    5   71 1    
    12    6    7 1    
    13    6   72 1    
    14    6   73 1    
    15    7    8 1    
    16    8    9 1    
    17    8   74 1    
    18    8   75 1    
    19    9   10 ar   
    20    9   14 ar   
    21   10   11 ar   
    22   10   76 1    
    23   11   12 ar   
    24   11   48 1    
    25   12   13 ar   
    26   12   77 1    
    27   13   14 ar   
    28   13   15 1    
    29   14   78 1    
    30   15   16 1    
    31   15   79 1    
    32   15   80 1    
    33   16   17 1    
    34   17   18 1    
    35   17   81 1    
    36   17   82 1    
    37   18   19 1    
    38   18   22 1    
    39   18   83 1    
    40   19   20 am   BACKBONE|DICT|INTERRES
    41   19   21 2    
    42   20   84 1    
    43   20   85 1    
    44   22   23 am   BACKBONE|DICT|INTERRES
    45   22   86 1    
    46   23   24 2    
    47   23   25 1    
    48   25   26 1    
    49   25   27 1    
    50   25   87 1    
    51   26   88 1    
    52   26   89 1    
    53   26   90 1    
    54   27   28 am   BACKBONE|DICT|INTERRES
    55   27   91 1    
    56   28   29 2    
    57   28   30 1    
    58   30   31 1    
    59   30   32 1    
    60   30   92 1    
    61   31   93 1    
    62   31   94 1    
    63   31   95 1    
    64   32   33 am   BACKBONE|DICT|INTERRES
    65   32   96 1    
    66   33   34 2    
    67   33   35 1    
    68   35   36 1    
    69   35   37 1    
    70   35   97 1    
    71   36   98 1    
    72   36   99 1    
    73   36  100 1    
    74   37   38 am   BACKBONE|DICT|INTERRES
    75   37  101 1    
    76   38   39 2    
    77   38   40 1    
    78   40   41 1    
    79   40   42 1    
    80   40  102 1    
    81   41  103 1    
    82   41  104 1    
    83   41  105 1    
    84   42   43 am   BACKBONE|DICT|INTERRES
    85   42  106 1    
    86   43   44 2    
    87   43   45 1    
    88   45   46 1    
    89   45   49 1    
    90   45  107 1    
    91   46   47 1    
    92   46  108 1    
    93   46  109 1    
    94   47   48 1    
    95   48  110 1    
    96   48  111 1    
    97   49   50 am   BACKBONE|DICT|INTERRES
    98   49  112 1    
    99   50   51 2    
   100   50   52 1    
   101   52   53 1    
   102   52   54 1    
   103   52  113 1    
   104   53  114 1    
   105   53  115 1    
   106   53  116 1    
   107   54   55 am   BACKBONE|DICT|INTERRES
   108   54  117 1    
   109   55   56 2    
   110   55   57 1    
   111   57   58 1    
   112   57   59 1    
   113   57  118 1    
   114   58  119 1    
   115   58  120 1    
   116   58  121 1    
   117   59   60 am   BACKBONE|DICT|INTERRES
   118   59  122 1    
   119   60   61 2    
   120   60   62 1    
   121   62   63 1    
   122   62   64 1    
   123   62  123 1    
   124   63  124 1    
   125   63  125 1    
   126   63  126 1    
   127   64   65 am   BACKBONE|DICT|INTERRES
   128   64  127 1    
   129   65   66 2    
@<TRIPOS>SUBSTRUCTURE
     1 UNK         1 GROUP             0       ****    0 ROOT    
