@<TRIPOS>MOLECULE
3R135
127   129    1
SMALL
USER_CHARGES


@<TRIPOS>ATOM
      1 CA        -80.5243   32.2901  -78.5518 C.3       0 UNK        -0.1998 
      2 C         -79.5971   31.3208  -77.8340 C.2       0 UNK         0.4909 
      3 O         -78.3848   31.3625  -78.0444 O.2       0 UNK        -0.5240 
      4 N         -80.1559   30.4477  -76.9907 N.am      1 UNK        -0.4739 
      5 CA        -79.4416   29.4167  -76.2416 C.3       1 UNK         0.0864 
      6 C6        -78.7517   29.9904  -74.9773 C.3       11 UNK        -0.0881 
      7 S7        -77.4333   28.9035  -74.3400 S.3       11 UNK        -0.2682 
      8 C8        -77.9414   28.7457  -72.6049 C.3       11 UNK         0.0289 
      9 C9        -76.9439   27.9122  -71.8195 C.ar      11 UNK        -0.0687 
     10 C10       -77.1278   26.5333  -71.6910 C.ar      11 UNK        -0.0823 
     11 C11       -76.2245   25.7608  -70.9551 C.ar      11 UNK        -0.0830 
     12 C12       -75.1289   26.3812  -70.3450 C.ar      11 UNK        -0.1021 
     13 C13       -74.9272   27.7583  -70.4784 C.ar      11 UNK        -0.0753 
     14 C14       -75.8406   28.5197  -71.2138 C.ar      11 UNK        -0.0933 
     15 C15       -73.7209   28.4244  -69.8361 C.3       11 UNK         0.0166 
     16 S16       -72.4096   28.6943  -71.0681 S.3       11 UNK        -0.2615 
     17 C17       -71.9857   30.4487  -70.7937 C.3       11 UNK        -0.0865 
     18 CA        -73.0550   31.4451  -71.3170 C.3       10 UNK         0.0862 
     19 C         -72.5966   32.9096  -71.0765 C.2       10 UNK         0.5551 
     20 N         -72.9128   33.4756  -69.9198 N.am      10 UNK        -0.7319 
     21 O         -71.9204   33.5167  -71.9051 O.2       10 UNK        -0.5018 
     22 N         -73.4149   31.1817  -72.7169 N.am      10 UNK        -0.4509 
     23 C         -74.4464   31.7305  -73.3667 C.2       10 UNK         0.4899 
     24 O         -75.2423   32.5128  -72.8464 O.2       10 UNK        -0.4839 
     25 CA        -74.6625   31.3228  -74.8346 C.3       9 UNK         0.0222 
     26 CB        -73.8835   32.2443  -75.7930 C.3       9 UNK        -0.1966 
     27 N         -74.4191   29.9002  -75.1169 N.am      9 UNK        -0.4218 
     28 C         -73.2638   29.2213  -75.1532 C.2       9 UNK         0.5020 
     29 O         -72.1670   29.7294  -74.9152 O.2       9 UNK        -0.5274 
     30 CA        -73.3296   27.7146  -75.4780 C.3       8 UNK         0.0270 
     31 CB        -72.9965   26.8834  -74.2291 C.3       8 UNK        -0.1976 
     32 N         -74.6094   27.2490  -76.0268 N.am      8 UNK        -0.4313 
     33 C         -75.0913   27.5543  -77.2391 C.2       8 UNK         0.5041 
     34 O         -74.5098   28.2852  -78.0430 O.2       8 UNK        -0.5577 
     35 CA        -76.4555   26.9296  -77.5931 C.3       7 UNK         0.0284 
     36 CB        -77.0308   27.4383  -78.9318 C.3       7 UNK        -0.1958 
     37 N         -76.4384   25.4628  -77.5519 N.am      7 UNK        -0.4454 
     38 C         -75.6677   24.6360  -78.2762 C.2       7 UNK         0.5089 
     39 O         -74.8609   25.0109  -79.1288 O.2       7 UNK        -0.5125 
     40 CA        -75.8374   23.1279  -77.9902 C.3       6 UNK         0.0408 
     41 CB        -74.7613   22.2610  -78.6771 C.3       6 UNK        -0.1791 
     42 N         -75.9118   22.8102  -76.5578 N.am      6 UNK        -0.4762 
     43 C         -75.0079   23.1142  -75.6102 C.2       6 UNK         0.5007 
     44 O         -73.9503   23.6970  -75.8490 O.2       6 UNK        -0.5032 
     45 CA        -75.3328   22.7133  -74.1544 C.3       5 UNK         0.0783 
     46 C46       -74.8861   23.8066  -73.1516 C.3       11 UNK        -0.0857 
     47 S47       -75.0212   23.2808  -71.4100 S.3       11 UNK        -0.2512 
     48 C48       -76.4422   24.2579  -70.8215 C.3       11 UNK         0.0225 
     49 N         -76.7554   22.3792  -74.0142 N.am      5 UNK        -0.4615 
     50 C         -77.2229   21.1955  -73.5977 C.2       4 UNK         0.5053 
     51 O         -76.5099   20.2682  -73.2135 O.2       4 UNK        -0.5105 
     52 CA        -78.7493   20.9940  -73.6408 C.3       4 UNK         0.0263 
     53 CB        -79.3780   21.3944  -72.2961 C.3       4 UNK        -0.1981 
     54 N         -79.4283   21.7160  -74.7231 N.am      4 UNK        -0.4224 
     55 C         -79.1642   21.6007  -76.0337 C.2       3 UNK         0.4895 
     56 O         -78.2905   20.8676  -76.4957 O.2       3 UNK        -0.5091 
     57 CA        -79.9793   22.4788  -76.9987 C.3       3 UNK         0.0250 
     58 CB        -81.1056   21.6577  -77.6466 C.3       3 UNK        -0.1996 
     59 N         -80.5501   23.6817  -76.3838 N.am      3 UNK        -0.4254 
     60 C         -79.8393   24.7054  -75.8940 C.2       2 UNK         0.5004 
     61 O         -78.6042   24.7328  -75.8477 O.2       2 UNK        -0.5226 
     62 CA        -80.6475   25.8774  -75.3309 C.3       2 UNK         0.0269 
     63 CB        -80.8905   25.6983  -73.8231 C.3       2 UNK        -0.1926 
     64 N         -79.9003   27.1074  -75.5661 N.am      2 UNK        -0.4687 
     65 C         -80.4317   28.2793  -75.9282 C.2       1 UNK         0.5165 
     66 O         -81.6466   28.4794  -76.0266 O.2       1 UNK        -0.5079 
     67 H67       -80.2500   33.3173  -78.3133 H         1 UNK         0.0900 
     68 H68       -81.5663   32.1427  -78.2680 H         1 UNK         0.0900 
     69 H69       -80.4441   32.1570  -79.6303 H         1 UNK         0.0900 
     70 H70       -81.1623   30.4030  -76.8790 H         1 UNK         0.2959 
     71 H71       -78.6825   29.0065  -76.9093 H         1 UNK         0.1079 
     72 H72       -78.2782   30.9455  -75.2096 H         1 UNK         0.0837 
     73 H73       -79.4861   30.2099  -74.1998 H         1 UNK         0.0837 
     74 H74       -78.0276   29.7385  -72.1604 H         1 UNK         0.0685 
     75 H75       -78.9340   28.2944  -72.5567 H         1 UNK         0.0685 
     76 H76       -77.9765   26.0628  -72.1656 H         1 UNK         0.1434 
     77 H77       -74.4246   25.7864  -69.7794 H         1 UNK         0.1329 
     78 H78       -75.6879   29.5846  -71.3226 H         1 UNK         0.1335 
     79 H79       -74.0259   29.3656  -69.3779 H         1 UNK         0.0680 
     80 H80       -73.3251   27.8082  -69.0274 H         1 UNK         0.0680 
     81 H81       -71.0284   30.6347  -71.2847 H         1 UNK         0.1032 
     82 H82       -71.8086   30.6001  -69.7270 H         1 UNK         0.1032 
     83 H83       -73.9654   31.2930  -70.7349 H         1 UNK         0.0461 
     84 H84       -72.6096   34.4197  -69.7378 H         1 UNK         0.3453 
     85 H85       -73.4589   32.9847  -69.2290 H         1 UNK         0.3453 
     86 H86       -72.7940   30.5741  -73.2412 H         1 UNK         0.2984 
     87 H87       -75.7232   31.4731  -75.0414 H         1 UNK         0.0554 
     88 H88       -74.0796   31.9895  -76.8345 H         1 UNK         0.0847 
     89 H89       -72.8069   32.1899  -75.6298 H         1 UNK         0.0847 
     90 H90       -74.1770   33.2853  -75.6522 H         1 UNK         0.0847 
     91 H91       -75.2612   29.3568  -75.2536 H         1 UNK         0.3141 
     92 H92       -72.5592   27.5216  -76.2274 H         1 UNK         0.0743 
     93 H93       -73.7680   26.9725  -73.4623 H         1 UNK         0.0784 
     94 H94       -72.8822   25.8300  -74.4805 H         1 UNK         0.0784 
     95 H95       -72.0549   27.2049  -73.7819 H         1 UNK         0.0784 
     96 H96       -75.1443   26.6230  -75.4431 H         1 UNK         0.3213 
     97 H97       -77.1428   27.2379  -76.8076 H         1 UNK         0.0855 
     98 H98       -77.1182   28.5258  -78.9302 H         1 UNK         0.0814 
     99 H99       -78.0256   27.0328  -79.1154 H         1 UNK         0.0814 
    100 H100      -76.3962   27.1670  -79.7759 H         1 UNK         0.0814 
    101 H101      -77.0888   25.0419  -76.8899 H         1 UNK         0.3105 
    102 H102      -76.8025   22.8472  -78.4140 H         1 UNK         0.0547 
    103 H103      -74.7770   22.4012  -79.7586 H         1 UNK         0.0837 
    104 H104      -73.7581   22.5123  -78.3315 H         1 UNK         0.0837 
    105 H105      -74.9262   21.2005  -78.4875 H         1 UNK         0.0837 
    106 H106      -76.7252   22.2732  -76.2793 H         1 UNK         0.3020 
    107 H107      -74.7221   21.8270  -73.9677 H         1 UNK         0.1245 
    108 H108      -75.4418   24.7296  -73.3204 H         1 UNK         0.0781 
    109 H109      -73.8351   24.0561  -73.3021 H         1 UNK         0.0781 
    110 H110      -76.6247   24.0188  -69.7731 H         1 UNK         0.0836 
    111 H111      -77.3317   23.9412  -71.3678 H         1 UNK         0.0836 
    112 H112      -77.4124   23.0860  -74.3175 H         1 UNK         0.3022 
    113 H113      -78.9293   19.9287  -73.7997 H         1 UNK         0.0747 
    114 H114      -80.4376   21.1403  -72.2615 H         1 UNK         0.0793 
    115 H115      -78.8955   20.8731  -71.4679 H         1 UNK         0.0793 
    116 H116      -79.2825   22.4643  -72.1074 H         1 UNK         0.0793 
    117 H117      -80.1682   22.3450  -74.4486 H         1 UNK         0.3047 
    118 H118      -79.2987   22.8046  -77.7883 H         1 UNK         0.0822 
    119 H119      -81.6331   22.2357  -78.4058 H         1 UNK         0.0807 
    120 H120      -81.8368   21.3217  -76.9103 H         1 UNK         0.0807 
    121 H121      -80.7078   20.7691  -78.1393 H         1 UNK         0.0807 
    122 H122      -81.5588   23.7377  -76.3673 H         1 UNK         0.2946 
    123 H123      -81.6077   25.9216  -75.8510 H         1 UNK         0.1144 
    124 H124      -81.4369   26.5451  -73.4073 H         1 UNK         0.0793 
    125 H125      -79.9551   25.6020  -73.2728 H         1 UNK         0.0793 
    126 H126      -81.4810   24.8034  -73.6236 H         1 UNK         0.0793 
    127 H127      -78.8959   27.0076  -75.5031 H         1 UNK         0.2896 
@<TRIPOS>BOND
     1    1    2 1    
     2    1   67 1    
     3    1   68 1    
     4    1   69 1    
     5    2    3 2    
     6    2    4 am   BACKBONE|DICT|INTERRES
     7    4    5 1    
     8    4   70 1    
     9    5    6 1    
    10    5   65 1    
    11    5   71 1    
    12    6    7 1    
    13    6   72 1    
    14    6   73 1    
    15    7    8 1    
    16    8    9 1    
    17    8   74 1    
    18    8   75 1    
    19    9   10 ar   
    20    9   14 ar   
    21   10   11 ar   
    22   10   76 1    
    23   11   12 ar   
    24   11   48 1    
    25   12   13 ar   
    26   12   77 1    
    27   13   14 ar   
    28   13   15 1    
    29   14   78 1    
    30   15   16 1    
    31   15   79 1    
    32   15   80 1    
    33   16   17 1    
    34   17   18 1    
    35   17   81 1    
    36   17   82 1    
    37   18   19 1    
    38   18   22 1    
    39   18   83 1    
    40   19   20 am   BACKBONE|DICT|INTERRES
    41   19   21 2    
    42   20   84 1    
    43   20   85 1    
    44   22   23 am   BACKBONE|DICT|INTERRES
    45   22   86 1    
    46   23   24 2    
    47   23   25 1    
    48   25   26 1    
    49   25   27 1    
    50   25   87 1    
    51   26   88 1    
    52   26   89 1    
    53   26   90 1    
    54   27   28 am   BACKBONE|DICT|INTERRES
    55   27   91 1    
    56   28   29 2    
    57   28   30 1    
    58   30   31 1    
    59   30   32 1    
    60   30   92 1    
    61   31   93 1    
    62   31   94 1    
    63   31   95 1    
    64   32   33 am   BACKBONE|DICT|INTERRES
    65   32   96 1    
    66   33   34 2    
    67   33   35 1    
    68   35   36 1    
    69   35   37 1    
    70   35   97 1    
    71   36   98 1    
    72   36   99 1    
    73   36  100 1    
    74   37   38 am   BACKBONE|DICT|INTERRES
    75   37  101 1    
    76   38   39 2    
    77   38   40 1    
    78   40   41 1    
    79   40   42 1    
    80   40  102 1    
    81   41  103 1    
    82   41  104 1    
    83   41  105 1    
    84   42   43 am   BACKBONE|DICT|INTERRES
    85   42  106 1    
    86   43   44 2    
    87   43   45 1    
    88   45   46 1    
    89   45   49 1    
    90   45  107 1    
    91   46   47 1    
    92   46  108 1    
    93   46  109 1    
    94   47   48 1    
    95   48  110 1    
    96   48  111 1    
    97   49   50 am   BACKBONE|DICT|INTERRES
    98   49  112 1    
    99   50   51 2    
   100   50   52 1    
   101   52   53 1    
   102   52   54 1    
   103   52  113 1    
   104   53  114 1    
   105   53  115 1    
   106   53  116 1    
   107   54   55 am   BACKBONE|DICT|INTERRES
   108   54  117 1    
   109   55   56 2    
   110   55   57 1    
   111   57   58 1    
   112   57   59 1    
   113   57  118 1    
   114   58  119 1    
   115   58  120 1    
   116   58  121 1    
   117   59   60 am   BACKBONE|DICT|INTERRES
   118   59  122 1    
   119   60   61 2    
   120   60   62 1    
   121   62   63 1    
   122   62   64 1    
   123   62  123 1    
   124   63  124 1    
   125   63  125 1    
   126   63  126 1    
   127   64   65 am   BACKBONE|DICT|INTERRES
   128   64  127 1    
   129   65   66 2    
@<TRIPOS>SUBSTRUCTURE
     1 UNK         1 GROUP             0       ****    0 ROOT    
