@<TRIPOS>MOLECULE
3R135
127   129    1
SMALL
USER_CHARGES


@<TRIPOS>ATOM
      1 CA        -79.2129   29.9015  -75.9325 C.3       0 UNK        -0.1998 
      2 C         -79.7008   28.7682  -75.0435 C.2       0 UNK         0.4909 
      3 O         -79.1741   27.6571  -75.1330 O.2       0 UNK        -0.5240 
      4 N         -80.6988   29.0404  -74.1894 N.am      1 UNK        -0.4739 
      5 CA        -81.2732   28.0928  -73.2270 C.3       1 UNK         0.0864 
      6 C6        -82.2985   28.7424  -72.2551 C.3       11 UNK        -0.0881 
      7 S7        -81.7827   30.3344  -71.5212 S.3       11 UNK        -0.2682 
      8 C8        -80.7071   29.8177  -70.1403 C.3       11 UNK         0.0289 
      9 C9        -79.3590   29.3087  -70.6317 C.ar      11 UNK        -0.0687 
     10 C10       -78.9200   28.0231  -70.2995 C.ar      11 UNK        -0.0823 
     11 C11       -77.7147   27.5331  -70.8121 C.ar      11 UNK        -0.0830 
     12 C12       -76.9367   28.3465  -71.6430 C.ar      11 UNK        -0.1021 
     13 C13       -77.3706   29.6284  -71.9877 C.ar      11 UNK        -0.0753 
     14 C14       -78.5680   30.1125  -71.4585 C.ar      11 UNK        -0.0933 
     15 C15       -76.6044   30.4591  -73.0032 C.3       11 UNK         0.0166 
     16 S16       -75.3258   31.5050  -72.2417 S.3       11 UNK        -0.2615 
     17 C17       -73.8590   30.4168  -72.2496 C.3       11 UNK        -0.0865 
     18 CA        -73.0183   30.5699  -73.5493 C.3       10 UNK         0.0862 
     19 C         -71.5732   30.0159  -73.3815 C.2       10 UNK         0.5551 
     20 N         -71.0611   29.2076  -74.3015 N.am      10 UNK        -0.7319 
     21 O         -70.8962   30.3387  -72.4087 O.2       10 UNK        -0.5018 
     22 N         -73.7266   29.9917  -74.7044 N.am      10 UNK        -0.4509 
     23 C         -74.0594   30.6309  -75.8294 C.2       10 UNK         0.4899 
     24 O         -73.7655   31.8013  -76.0762 O.2       10 UNK        -0.4839 
     25 CA        -74.8465   29.7943  -76.8579 C.3       9 UNK         0.0222 
     26 CB        -75.4916   30.6598  -77.9561 C.3       9 UNK        -0.1966 
     27 N         -73.9950   28.7789  -77.4824 N.am      9 UNK        -0.4218 
     28 C         -73.6157   27.6351  -76.9018 C.2       9 UNK         0.5020 
     29 O         -73.9924   27.2797  -75.7756 O.2       9 UNK        -0.5274 
     30 CA        -72.6433   26.7494  -77.6959 C.3       8 UNK         0.0270 
     31 CB        -71.2708   27.4344  -77.8578 C.3       8 UNK        -0.1976 
     32 N         -72.5133   25.5181  -76.9342 N.am      8 UNK        -0.4313 
     33 C         -71.8717   24.3842  -77.2262 C.2       8 UNK         0.5041 
     34 O         -71.2879   24.1797  -78.2913 O.2       8 UNK        -0.5577 
     35 CA        -71.9171   23.2783  -76.1480 C.3       7 UNK         0.0284 
     36 CB        -70.5357   22.6329  -75.9100 C.3       7 UNK        -0.1958 
     37 N         -72.5455   23.7167  -74.8878 N.am      7 UNK        -0.4454 
     38 C         -72.0808   24.6047  -73.9912 C.2       7 UNK         0.5089 
     39 O         -70.9490   25.0869  -74.0300 O.2       7 UNK        -0.5125 
     40 CA        -73.0783   25.0911  -72.9204 C.3       6 UNK         0.0408 
     41 CB        -72.7440   26.5030  -72.4070 C.3       6 UNK        -0.1791 
     42 N         -74.4463   25.1049  -73.4479 N.am      6 UNK        -0.4762 
     43 C         -75.3916   24.2048  -73.1458 C.2       6 UNK         0.5007 
     44 O         -75.2190   23.2712  -72.3620 O.2       6 UNK        -0.5032 
     45 CA        -76.7392   24.3365  -73.8850 C.3       5 UNK         0.0783 
     46 C46       -77.7126   25.3178  -73.1958 C.3       11 UNK        -0.0857 
     47 S47       -78.2107   24.8866  -71.4939 S.3       11 UNK        -0.2512 
     48 C48       -77.2765   26.1068  -70.5086 C.3       11 UNK         0.0225 
     49 N         -76.5865   24.7371  -75.2847 N.am      5 UNK        -0.4615 
     50 C         -75.9518   24.0643  -76.2524 C.2       4 UNK         0.5053 
     51 O         -75.2799   23.0515  -76.0560 O.2       4 UNK        -0.5105 
     52 CA        -76.1200   24.6347  -77.6772 C.3       4 UNK         0.0263 
     53 CB        -75.7695   23.6164  -78.7819 C.3       4 UNK        -0.1981 
     54 N         -77.4546   25.2239  -77.8821 N.am      4 UNK        -0.4224 
     55 C         -78.6339   24.5886  -77.7842 C.2       3 UNK         0.4895 
     56 O         -78.7556   23.3670  -77.6792 O.2       3 UNK        -0.5091 
     57 CA        -79.8761   25.4910  -77.7356 C.3       3 UNK         0.0250 
     58 CB        -80.8316   25.2490  -78.9218 C.3       3 UNK        -0.1996 
     59 N         -80.5320   25.3803  -76.4251 N.am      3 UNK        -0.4254 
     60 C         -81.3160   24.3989  -75.9447 C.2       2 UNK         0.5004 
     61 O         -81.7332   23.4522  -76.6127 O.2       2 UNK        -0.5226 
     62 CA        -81.7130   24.4616  -74.4524 C.3       2 UNK         0.0269 
     63 CB        -81.1121   23.2708  -73.6846 C.3       2 UNK        -0.1926 
     64 N         -81.3261   25.6999  -73.7682 N.am      2 UNK        -0.4687 
     65 C         -81.9065   26.8913  -73.9571 C.2       1 UNK         0.5165 
     66 O         -82.8785   27.0687  -74.6944 O.2       1 UNK        -0.5079 
     67 H67       -79.6981   30.8467  -75.6904 H         1 UNK         0.0900 
     68 H68       -79.4157   29.6706  -76.9778 H         1 UNK         0.0900 
     69 H69       -78.1379   30.0323  -75.8152 H         1 UNK         0.0900 
     70 H70       -81.0976   29.9678  -74.1645 H         1 UNK         0.2959 
     71 H71       -80.4392   27.7198  -72.6310 H         1 UNK         0.1079 
     72 H72       -83.2392   28.9375  -72.7743 H         1 UNK         0.0837 
     73 H73       -82.5445   28.0486  -71.4490 H         1 UNK         0.0837 
     74 H74       -80.5395   30.6741  -69.4860 H         1 UNK         0.0685 
     75 H75       -81.2221   29.0655  -69.5407 H         1 UNK         0.0685 
     76 H76       -79.5303   27.3882  -69.6716 H         1 UNK         0.1434 
     77 H77       -76.0178   27.9615  -72.0619 H         1 UNK         0.1329 
     78 H78       -78.9135   31.0999  -71.7324 H         1 UNK         0.1335 
     79 H79       -76.1735   29.8039  -73.7584 H         1 UNK         0.0680 
     80 H80       -77.2972   31.1086  -73.5403 H         1 UNK         0.0680 
     81 H81       -74.1533   29.3794  -72.0916 H         1 UNK         0.1032 
     82 H82       -73.2695   30.6928  -71.3732 H         1 UNK         0.1032 
     83 H83       -72.8747   31.6386  -73.7182 H         1 UNK         0.0461 
     84 H84       -71.5974   28.9601  -75.1150 H         1 UNK         0.3453 
     85 H85       -70.1236   28.8576  -74.1832 H         1 UNK         0.3453 
     86 H86       -73.9432   29.0026  -74.6501 H         1 UNK         0.2984 
     87 H87       -75.6556   29.2921  -76.3225 H         1 UNK         0.0554 
     88 H88       -76.1045   30.0577  -78.6272 H         1 UNK         0.0847 
     89 H89       -74.7439   31.1779  -78.5580 H         1 UNK         0.0847 
     90 H90       -76.1425   31.4195  -77.5210 H         1 UNK         0.0847 
     91 H91       -73.6220   29.0071  -78.3932 H         1 UNK         0.3141 
     92 H92       -73.0771   26.5245  -78.6719 H         1 UNK         0.0743 
     93 H93       -70.8018   27.6296  -76.8928 H         1 UNK         0.0784 
     94 H94       -70.5844   26.8174  -78.4378 H         1 UNK         0.0784 
     95 H95       -71.3559   28.3871  -78.3815 H         1 UNK         0.0784 
     96 H96       -72.9751   25.5856  -76.0353 H         1 UNK         0.3213 
     97 H97       -72.5728   22.5037  -76.5488 H         1 UNK         0.0855 
     98 H98       -69.7878   23.3666  -75.6087 H         1 UNK         0.0814 
     99 H99       -70.1682   22.1576  -76.8202 H         1 UNK         0.0814 
    100 H100      -70.5833   21.8631  -75.1400 H         1 UNK         0.0814 
    101 H101      -73.5018   23.3994  -74.7719 H         1 UNK         0.3105 
    102 H102      -72.9951   24.4030  -72.0770 H         1 UNK         0.0547 
    103 H103      -71.7440   26.5426  -71.9733 H         1 UNK         0.0837 
    104 H104      -72.7809   27.2352  -73.2125 H         1 UNK         0.0837 
    105 H105      -73.4429   26.8187  -71.6326 H         1 UNK         0.0837 
    106 H106      -74.6549   25.8194  -74.1361 H         1 UNK         0.3020 
    107 H107      -77.1964   23.3442  -73.8849 H         1 UNK         0.1245 
    108 H108      -78.6299   25.3633  -73.7803 H         1 UNK         0.0781 
    109 H109      -77.3092   26.3268  -73.2381 H         1 UNK         0.0781 
    110 H110      -76.2082   25.9811  -70.6927 H         1 UNK         0.0836 
    111 H111      -77.4285   25.8972  -69.4488 H         1 UNK         0.0836 
    112 H112      -77.0894   25.5710  -75.5518 H         1 UNK         0.3022 
    113 H113      -75.4107   25.4572  -77.7592 H         1 UNK         0.0747 
    114 H114      -75.8999   24.0471  -79.7746 H         1 UNK         0.0793 
    115 H115      -74.7292   23.2982  -78.7017 H         1 UNK         0.0793 
    116 H116      -76.3872   22.7201  -78.7204 H         1 UNK         0.0793 
    117 H117      -77.4693   26.2293  -77.9886 H         1 UNK         0.3047 
    118 H118      -79.5487   26.5301  -77.8012 H         1 UNK         0.0822 
    119 H119      -81.7358   25.8512  -78.8338 H         1 UNK         0.0807 
    120 H120      -81.1291   24.2034  -79.0047 H         1 UNK         0.0807 
    121 H121      -80.3510   25.5177  -79.8631 H         1 UNK         0.0807 
    122 H122      -80.2467   26.1003  -75.7676 H         1 UNK         0.2946 
    123 H123      -82.8017   24.3783  -74.4127 H         1 UNK         0.1144 
    124 H124      -81.4168   23.2755  -72.6378 H         1 UNK         0.0793 
    125 H125      -80.0223   23.2754  -73.7180 H         1 UNK         0.0793 
    126 H126      -81.4441   22.3232  -74.1111 H         1 UNK         0.0793 
    127 H127      -80.5318   25.6381  -73.1470 H         1 UNK         0.2896 
@<TRIPOS>BOND
     1    1    2 1    
     2    1   67 1    
     3    1   68 1    
     4    1   69 1    
     5    2    3 2    
     6    2    4 am   BACKBONE|DICT|INTERRES
     7    4    5 1    
     8    4   70 1    
     9    5    6 1    
    10    5   65 1    
    11    5   71 1    
    12    6    7 1    
    13    6   72 1    
    14    6   73 1    
    15    7    8 1    
    16    8    9 1    
    17    8   74 1    
    18    8   75 1    
    19    9   10 ar   
    20    9   14 ar   
    21   10   11 ar   
    22   10   76 1    
    23   11   12 ar   
    24   11   48 1    
    25   12   13 ar   
    26   12   77 1    
    27   13   14 ar   
    28   13   15 1    
    29   14   78 1    
    30   15   16 1    
    31   15   79 1    
    32   15   80 1    
    33   16   17 1    
    34   17   18 1    
    35   17   81 1    
    36   17   82 1    
    37   18   19 1    
    38   18   22 1    
    39   18   83 1    
    40   19   20 am   BACKBONE|DICT|INTERRES
    41   19   21 2    
    42   20   84 1    
    43   20   85 1    
    44   22   23 am   BACKBONE|DICT|INTERRES
    45   22   86 1    
    46   23   24 2    
    47   23   25 1    
    48   25   26 1    
    49   25   27 1    
    50   25   87 1    
    51   26   88 1    
    52   26   89 1    
    53   26   90 1    
    54   27   28 am   BACKBONE|DICT|INTERRES
    55   27   91 1    
    56   28   29 2    
    57   28   30 1    
    58   30   31 1    
    59   30   32 1    
    60   30   92 1    
    61   31   93 1    
    62   31   94 1    
    63   31   95 1    
    64   32   33 am   BACKBONE|DICT|INTERRES
    65   32   96 1    
    66   33   34 2    
    67   33   35 1    
    68   35   36 1    
    69   35   37 1    
    70   35   97 1    
    71   36   98 1    
    72   36   99 1    
    73   36  100 1    
    74   37   38 am   BACKBONE|DICT|INTERRES
    75   37  101 1    
    76   38   39 2    
    77   38   40 1    
    78   40   41 1    
    79   40   42 1    
    80   40  102 1    
    81   41  103 1    
    82   41  104 1    
    83   41  105 1    
    84   42   43 am   BACKBONE|DICT|INTERRES
    85   42  106 1    
    86   43   44 2    
    87   43   45 1    
    88   45   46 1    
    89   45   49 1    
    90   45  107 1    
    91   46   47 1    
    92   46  108 1    
    93   46  109 1    
    94   47   48 1    
    95   48  110 1    
    96   48  111 1    
    97   49   50 am   BACKBONE|DICT|INTERRES
    98   49  112 1    
    99   50   51 2    
   100   50   52 1    
   101   52   53 1    
   102   52   54 1    
   103   52  113 1    
   104   53  114 1    
   105   53  115 1    
   106   53  116 1    
   107   54   55 am   BACKBONE|DICT|INTERRES
   108   54  117 1    
   109   55   56 2    
   110   55   57 1    
   111   57   58 1    
   112   57   59 1    
   113   57  118 1    
   114   58  119 1    
   115   58  120 1    
   116   58  121 1    
   117   59   60 am   BACKBONE|DICT|INTERRES
   118   59  122 1    
   119   60   61 2    
   120   60   62 1    
   121   62   63 1    
   122   62   64 1    
   123   62  123 1    
   124   63  124 1    
   125   63  125 1    
   126   63  126 1    
   127   64   65 am   BACKBONE|DICT|INTERRES
   128   64  127 1    
   129   65   66 2    
@<TRIPOS>SUBSTRUCTURE
     1 UNK         1 GROUP             0       ****    0 ROOT    
