@<TRIPOS>MOLECULE
3R135
127   129    1
SMALL
USER_CHARGES


@<TRIPOS>ATOM
      1 CA        -85.0534   29.1854  -73.8555 C.3       0 UNK        -0.1998 
      2 C         -83.6760   28.5821  -74.0836 C.2       0 UNK         0.4909 
      3 O         -83.1324   28.6881  -75.1840 O.2       0 UNK        -0.5240 
      4 N         -83.1065   27.9370  -73.0581 N.am      1 UNK        -0.4739 
      5 CA        -81.7781   27.3093  -73.0738 C.3       1 UNK         0.0864 
      6 C6        -81.1548   27.2481  -71.6541 C.3       11 UNK        -0.0881 
      7 S7        -81.0610   28.8827  -70.8456 S.3       11 UNK        -0.2682 
      8 C8        -79.2976   28.9715  -70.3740 C.3       11 UNK         0.0289 
      9 C9        -78.2959   29.1621  -71.5164 C.ar      11 UNK        -0.0687 
     10 C10       -78.6747   29.5085  -72.8200 C.ar      11 UNK        -0.0823 
     11 C11       -77.7158   29.6931  -73.8211 C.ar      11 UNK        -0.0830 
     12 C12       -76.3595   29.5489  -73.5114 C.ar      11 UNK        -0.1021 
     13 C13       -75.9639   29.2246  -72.2108 C.ar      11 UNK        -0.0753 
     14 C14       -76.9356   29.0266  -71.2257 C.ar      11 UNK        -0.0933 
     15 C15       -74.4902   29.1572  -71.8411 C.3       11 UNK         0.0166 
     16 S16       -73.9625   27.4801  -71.3665 S.3       11 UNK        -0.2615 
     17 C17       -73.3354   26.7974  -72.9390 C.3       11 UNK        -0.0865 
     18 CA        -71.8040   27.0189  -73.0799 C.3       10 UNK         0.0862 
     19 C         -71.1583   26.0748  -74.1360 C.2       10 UNK         0.5551 
     20 N         -70.3844   26.5659  -75.0970 N.am      10 UNK        -0.7319 
     21 O         -71.3393   24.8624  -74.0641 O.2       10 UNK        -0.5018 
     22 N         -71.5011   28.4387  -73.3021 N.am      10 UNK        -0.4509 
     23 C         -70.4316   29.0960  -72.8380 C.2       10 UNK         0.4899 
     24 O         -69.5916   28.5943  -72.0897 O.2       10 UNK        -0.4839 
     25 CA        -70.2813   30.5693  -73.2831 C.3       9 UNK         0.0222 
     26 CB        -68.8065   31.0229  -73.3360 C.3       9 UNK        -0.1966 
     27 N         -70.9710   30.8807  -74.5461 N.am      9 UNK        -0.4218 
     28 C         -70.7490   30.3099  -75.7390 C.2       9 UNK         0.5020 
     29 O         -69.8647   29.4763  -75.9545 O.2       9 UNK        -0.5274 
     30 CA        -71.7070   30.7112  -76.8745 C.3       8 UNK         0.0270 
     31 CB        -71.0811   31.8115  -77.7464 C.3       8 UNK        -0.1976 
     32 N         -72.0457   29.5588  -77.7139 N.am      8 UNK        -0.4313 
     33 C         -72.6810   28.4627  -77.2787 C.2       8 UNK         0.5041 
     34 O         -73.1740   28.3572  -76.1487 O.2       8 UNK        -0.5577 
     35 CA        -72.7556   27.2821  -78.2588 C.3       7 UNK         0.0284 
     36 CB        -71.3475   26.8025  -78.6777 C.3       7 UNK        -0.1958 
     37 N         -73.4958   26.2138  -77.5970 N.am      7 UNK        -0.4454 
     38 C         -73.9156   25.0590  -78.1236 C.2       7 UNK         0.5089 
     39 O         -73.7034   24.7087  -79.2850 O.2       7 UNK        -0.5125 
     40 CA        -74.7338   24.1424  -77.1960 C.3       6 UNK         0.0408 
     41 CB        -73.8112   23.1881  -76.4228 C.3       6 UNK        -0.1791 
     42 N         -75.5718   24.8817  -76.2475 N.am      6 UNK        -0.4762 
     43 C         -76.6288   25.6317  -76.5909 C.2       6 UNK         0.5007 
     44 O         -77.0182   25.7549  -77.7537 O.2       6 UNK        -0.5032 
     45 CA        -77.3906   26.3096  -75.4306 C.3       5 UNK         0.0783 
     46 C46       -78.4500   27.3396  -75.9016 C.3       11 UNK        -0.0857 
     47 S47       -77.6662   28.8797  -76.4946 S.3       11 UNK        -0.2512 
     48 C48       -78.1536   30.0913  -75.2253 C.3       11 UNK         0.0225 
     49 N         -77.9865   25.2747  -74.5841 N.am      5 UNK        -0.4615 
     50 C         -77.3418   24.6345  -73.5978 C.2       4 UNK         0.5053 
     51 O         -76.1877   24.9024  -73.2655 O.2       4 UNK        -0.5105 
     52 CA        -78.0667   23.4744  -72.8931 C.3       4 UNK         0.0263 
     53 CB        -78.6084   23.9116  -71.5236 C.3       4 UNK        -0.1981 
     54 N         -79.1493   22.9082  -73.7027 N.am      4 UNK        -0.4224 
     55 C         -78.9429   22.0707  -74.7316 C.2       3 UNK         0.4895 
     56 O         -77.8336   21.6339  -75.0403 O.2       3 UNK        -0.5091 
     57 CA        -80.1617   21.6497  -75.5749 C.3       3 UNK         0.0250 
     58 CB        -80.6661   20.2662  -75.1331 C.3       3 UNK        -0.1996 
     59 N         -81.2799   22.5973  -75.5530 N.am      3 UNK        -0.4254 
     60 C         -81.2321   23.8666  -75.9805 C.2       2 UNK         0.5004 
     61 O         -80.2151   24.3977  -76.4271 O.2       2 UNK        -0.5226 
     62 CA        -82.5148   24.7104  -75.8524 C.3       2 UNK         0.0269 
     63 CB        -83.7502   23.9226  -75.3582 C.3       2 UNK        -0.1926 
     64 N         -82.3035   25.8913  -75.0077 N.am      2 UNK        -0.4687 
     65 C         -81.8321   25.9214  -73.7523 C.2       1 UNK         0.5165 
     66 O         -81.4785   24.9140  -73.1351 O.2       1 UNK        -0.5079 
     67 H67       -85.4077   29.0189  -72.8384 H         1 UNK         0.0900 
     68 H68       -85.7745   28.7444  -74.5431 H         1 UNK         0.0900 
     69 H69       -85.0255   30.2601  -74.0331 H         1 UNK         0.0900 
     70 H70       -83.6031   27.8688  -72.1809 H         1 UNK         0.2959 
     71 H71       -81.1199   27.9205  -73.6930 H         1 UNK         0.1079 
     72 H72       -81.7282   26.5819  -71.0066 H         1 UNK         0.0837 
     73 H73       -80.1491   26.8297  -71.7104 H         1 UNK         0.0837 
     74 H74       -79.1798   29.8045  -69.6798 H         1 UNK         0.0685 
     75 H75       -79.0440   28.0693  -69.8149 H         1 UNK         0.0685 
     76 H76       -79.7159   29.6579  -73.0622 H         1 UNK         0.1434 
     77 H77       -75.6149   29.7092  -74.2799 H         1 UNK         0.1329 
     78 H78       -76.6249   28.7836  -70.2184 H         1 UNK         0.1335 
     79 H79       -74.3139   29.8232  -70.9953 H         1 UNK         0.0680 
     80 H80       -73.8700   29.5363  -72.6530 H         1 UNK         0.0680 
     81 H81       -73.8820   27.2236  -73.7820 H         1 UNK         0.1032 
     82 H82       -73.5748   25.7324  -72.9350 H         1 UNK         0.1032 
     83 H83       -71.3480   26.7183  -72.1346 H         1 UNK         0.0461 
     84 H84       -69.9556   25.9304  -75.7489 H         1 UNK         0.3453 
     85 H85       -70.2268   27.5628  -75.1850 H         1 UNK         0.3453 
     86 H86       -72.1030   28.9047  -73.9664 H         1 UNK         0.2984 
     87 H87       -70.7789   31.1630  -72.5149 H         1 UNK         0.0554 
     88 H88       -68.7220   32.0662  -73.6396 H         1 UNK         0.0847 
     89 H89       -68.2224   30.4220  -74.0336 H         1 UNK         0.0847 
     90 H90       -68.3330   30.9337  -72.3575 H         1 UNK         0.0847 
     91 H91       -71.7215   31.5549  -74.4744 H         1 UNK         0.3141 
     92 H92       -72.6349   31.0910  -76.4414 H         1 UNK         0.0743 
     93 H93       -70.1544   31.4768  -78.2148 H         1 UNK         0.0784 
     94 H94       -71.7622   32.1293  -78.5362 H         1 UNK         0.0784 
     95 H95       -70.8438   32.6942  -77.1508 H         1 UNK         0.0784 
     96 H96       -71.6521   29.5516  -78.6433 H         1 UNK         0.3213 
     97 H97       -73.3166   27.6021  -79.1389 H         1 UNK         0.0855 
     98 H98       -70.7727   26.4504  -77.8223 H         1 UNK         0.0814 
     99 H99       -70.7730   27.6005  -79.1484 H         1 UNK         0.0814 
    100 H100      -71.3956   25.9887  -79.4005 H         1 UNK         0.0814 
    101 H101      -73.7437   26.4468  -76.6421 H         1 UNK         0.3105 
    102 H102      -75.3928   23.5394  -77.8242 H         1 UNK         0.0547 
    103 H103      -73.1904   22.6071  -77.1061 H         1 UNK         0.0837 
    104 H104      -73.1408   23.7279  -75.7536 H         1 UNK         0.0837 
    105 H105      -74.3846   22.4793  -75.8249 H         1 UNK         0.0837 
    106 H106      -75.3546   24.7885  -75.2616 H         1 UNK         0.3020 
    107 H107      -76.6525   26.8541  -74.8356 H         1 UNK         0.1245 
    108 H108      -79.1226   27.5834  -75.0794 H         1 UNK         0.0781 
    109 H109      -79.0883   26.9314  -76.6874 H         1 UNK         0.0781 
    110 H110      -79.2347   30.2316  -75.2741 H         1 UNK         0.0836 
    111 H111      -77.7105   31.0567  -75.4732 H         1 UNK         0.0836 
    112 H112      -78.8869   24.9258  -74.8924 H         1 UNK         0.3022 
    113 H113      -77.3229   22.6944  -72.7156 H         1 UNK         0.0747 
    114 H114      -77.8102   24.3175  -70.9004 H         1 UNK         0.0793 
    115 H115      -79.3711   24.6816  -71.6153 H         1 UNK         0.0793 
    116 H116      -79.0453   23.0712  -70.9842 H         1 UNK         0.0793 
    117 H117      -80.0853   23.2544  -73.5219 H         1 UNK         0.3047 
    118 H118      -79.8211   21.5744  -76.6099 H         1 UNK         0.0822 
    119 H119      -81.4614   19.9052  -75.7857 H         1 UNK         0.0807 
    120 H120      -81.0491   20.2834  -74.1119 H         1 UNK         0.0807 
    121 H121      -79.8632   19.5282  -75.1673 H         1 UNK         0.0807 
    122 H122      -82.1516   22.2576  -75.1731 H         1 UNK         0.2946 
    123 H123      -82.7333   25.0770  -76.8568 H         1 UNK         0.1144 
    124 H124      -83.9745   23.0811  -76.0152 H         1 UNK         0.0793 
    125 H125      -83.6177   23.5355  -74.3471 H         1 UNK         0.0793 
    126 H126      -84.6359   24.5581  -75.3488 H         1 UNK         0.0793 
    127 H127      -82.5648   26.7843  -75.4160 H         1 UNK         0.2896 
@<TRIPOS>BOND
     1    1    2 1    
     2    1   67 1    
     3    1   68 1    
     4    1   69 1    
     5    2    3 2    
     6    2    4 am   BACKBONE|DICT|INTERRES
     7    4    5 1    
     8    4   70 1    
     9    5    6 1    
    10    5   65 1    
    11    5   71 1    
    12    6    7 1    
    13    6   72 1    
    14    6   73 1    
    15    7    8 1    
    16    8    9 1    
    17    8   74 1    
    18    8   75 1    
    19    9   10 ar   
    20    9   14 ar   
    21   10   11 ar   
    22   10   76 1    
    23   11   12 ar   
    24   11   48 1    
    25   12   13 ar   
    26   12   77 1    
    27   13   14 ar   
    28   13   15 1    
    29   14   78 1    
    30   15   16 1    
    31   15   79 1    
    32   15   80 1    
    33   16   17 1    
    34   17   18 1    
    35   17   81 1    
    36   17   82 1    
    37   18   19 1    
    38   18   22 1    
    39   18   83 1    
    40   19   20 am   BACKBONE|DICT|INTERRES
    41   19   21 2    
    42   20   84 1    
    43   20   85 1    
    44   22   23 am   BACKBONE|DICT|INTERRES
    45   22   86 1    
    46   23   24 2    
    47   23   25 1    
    48   25   26 1    
    49   25   27 1    
    50   25   87 1    
    51   26   88 1    
    52   26   89 1    
    53   26   90 1    
    54   27   28 am   BACKBONE|DICT|INTERRES
    55   27   91 1    
    56   28   29 2    
    57   28   30 1    
    58   30   31 1    
    59   30   32 1    
    60   30   92 1    
    61   31   93 1    
    62   31   94 1    
    63   31   95 1    
    64   32   33 am   BACKBONE|DICT|INTERRES
    65   32   96 1    
    66   33   34 2    
    67   33   35 1    
    68   35   36 1    
    69   35   37 1    
    70   35   97 1    
    71   36   98 1    
    72   36   99 1    
    73   36  100 1    
    74   37   38 am   BACKBONE|DICT|INTERRES
    75   37  101 1    
    76   38   39 2    
    77   38   40 1    
    78   40   41 1    
    79   40   42 1    
    80   40  102 1    
    81   41  103 1    
    82   41  104 1    
    83   41  105 1    
    84   42   43 am   BACKBONE|DICT|INTERRES
    85   42  106 1    
    86   43   44 2    
    87   43   45 1    
    88   45   46 1    
    89   45   49 1    
    90   45  107 1    
    91   46   47 1    
    92   46  108 1    
    93   46  109 1    
    94   47   48 1    
    95   48  110 1    
    96   48  111 1    
    97   49   50 am   BACKBONE|DICT|INTERRES
    98   49  112 1    
    99   50   51 2    
   100   50   52 1    
   101   52   53 1    
   102   52   54 1    
   103   52  113 1    
   104   53  114 1    
   105   53  115 1    
   106   53  116 1    
   107   54   55 am   BACKBONE|DICT|INTERRES
   108   54  117 1    
   109   55   56 2    
   110   55   57 1    
   111   57   58 1    
   112   57   59 1    
   113   57  118 1    
   114   58  119 1    
   115   58  120 1    
   116   58  121 1    
   117   59   60 am   BACKBONE|DICT|INTERRES
   118   59  122 1    
   119   60   61 2    
   120   60   62 1    
   121   62   63 1    
   122   62   64 1    
   123   62  123 1    
   124   63  124 1    
   125   63  125 1    
   126   63  126 1    
   127   64   65 am   BACKBONE|DICT|INTERRES
   128   64  127 1    
   129   65   66 2    
@<TRIPOS>SUBSTRUCTURE
     1 UNK         1 GROUP             0       ****    0 ROOT    
