@<TRIPOS>MOLECULE
3R135
127   129    1
SMALL
USER_CHARGES


@<TRIPOS>ATOM
      1 CA        -83.3386   22.1527  -73.9168 C.3       0 UNK        -0.1998 
      2 C         -82.2742   23.1859  -73.5828 C.2       0 UNK         0.4909 
      3 O         -81.1734   23.1207  -74.1313 O.2       0 UNK        -0.5240 
      4 N         -82.6032   24.1466  -72.7039 N.am      1 UNK        -0.4739 
      5 CA        -81.7300   25.2294  -72.2243 C.3       1 UNK         0.0864 
      6 C6        -80.6523   24.7027  -71.2355 C.3       11 UNK        -0.0881 
      7 S7        -79.8450   26.0115  -70.2453 S.3       11 UNK        -0.2682 
      8 C8        -78.1198   25.9125  -70.8404 C.3       11 UNK         0.0289 
      9 C9        -77.4688   27.2811  -70.9835 C.ar      11 UNK        -0.0687 
     10 C10       -78.0784   28.2567  -71.7746 C.ar      11 UNK        -0.0823 
     11 C11       -77.4599   29.4871  -71.9939 C.ar      11 UNK        -0.0830 
     12 C12       -76.2453   29.7666  -71.3663 C.ar      11 UNK        -0.1021 
     13 C13       -75.6050   28.7922  -70.5962 C.ar      11 UNK        -0.0753 
     14 C14       -76.2245   27.5511  -70.4025 C.ar      11 UNK        -0.0933 
     15 C15       -74.2315   29.0720  -70.0026 C.3       11 UNK         0.0166 
     16 S16       -72.9118   28.9405  -71.2579 S.3       11 UNK        -0.2615 
     17 C17       -72.8974   30.6099  -72.0067 C.3       11 UNK        -0.0865 
     18 CA        -73.5102   30.6632  -73.4392 C.3       10 UNK         0.0862 
     19 C         -73.7418   32.1198  -73.9450 C.2       10 UNK         0.5551 
     20 N         -73.6353   32.3950  -75.2394 N.am      10 UNK        -0.7319 
     21 O         -74.0537   33.0114  -73.1592 O.2       10 UNK        -0.5018 
     22 N         -72.8377   29.7791  -74.4035 N.am      10 UNK        -0.4509 
     23 C         -71.5685   29.8515  -74.8232 C.2       10 UNK         0.4899 
     24 O         -70.7543   30.6911  -74.4354 O.2       10 UNK        -0.4839 
     25 CA        -71.1621   28.7937  -75.8672 C.3       9 UNK         0.0222 
     26 CB        -69.6552   28.8030  -76.2024 C.3       9 UNK        -0.1966 
     27 N         -71.6245   27.4548  -75.4845 N.am      9 UNK        -0.4218 
     28 C         -71.2508   26.7345  -74.4148 C.2       9 UNK         0.5020 
     29 O         -70.3488   27.0591  -73.6414 O.2       9 UNK        -0.5274 
     30 CA        -72.0229   25.4303  -74.1425 C.3       8 UNK         0.0270 
     31 CB        -72.9796   25.6180  -72.9525 C.3       8 UNK        -0.1976 
     32 N         -72.7933   24.9527  -75.2928 N.am      8 UNK        -0.4313 
     33 C         -72.2761   24.3702  -76.3819 C.2       8 UNK         0.5041 
     34 O         -71.0756   24.1417  -76.5346 O.2       8 UNK        -0.5577 
     35 CA        -73.2675   23.9958  -77.4958 C.3       7 UNK         0.0284 
     36 CB        -73.9790   22.6718  -77.1716 C.3       7 UNK        -0.1958 
     37 N         -74.2622   25.0452  -77.7363 N.am      7 UNK        -0.4454 
     38 C         -74.0003   26.2170  -78.3318 C.2       7 UNK         0.5089 
     39 O         -72.8887   26.5415  -78.7485 O.2       7 UNK        -0.5125 
     40 CA        -75.1740   27.2005  -78.4783 C.3       6 UNK         0.0408 
     41 CB        -75.9832   26.8909  -79.7472 C.3       6 UNK        -0.1791 
     42 N         -76.0684   27.2011  -77.3198 N.am      6 UNK        -0.4762 
     43 C         -75.7400   27.6770  -76.1092 C.2       6 UNK         0.5007 
     44 O         -74.6399   28.1609  -75.8403 O.2       6 UNK        -0.5032 
     45 CA        -76.8064   27.5334  -75.0021 C.3       5 UNK         0.0783 
     46 C46       -77.8916   28.6378  -75.1316 C.3       11 UNK        -0.0857 
     47 S47       -77.3230   30.2991  -74.6219 S.3       11 UNK        -0.2512 
     48 C48       -78.0683   30.4816  -72.9671 C.3       11 UNK         0.0225 
     49 N         -77.4099   26.1917  -74.9786 N.am      5 UNK        -0.4615 
     50 C         -76.7506   25.0228  -74.9651 C.2       4 UNK         0.5053 
     51 O         -75.5287   24.9324  -74.8751 O.2       4 UNK        -0.5105 
     52 CA        -77.5619   23.7279  -75.1445 C.3       4 UNK         0.0263 
     53 CB        -77.7230   22.9841  -73.8140 C.3       4 UNK        -0.1981 
     54 N         -78.8718   23.9317  -75.7675 N.am      4 UNK        -0.4224 
     55 C         -79.0425   24.2778  -77.0524 C.2       3 UNK         0.4895 
     56 O         -78.1140   24.4582  -77.8421 O.2       3 UNK        -0.5091 
     57 CA        -80.4884   24.4954  -77.5221 C.3       3 UNK         0.0250 
     58 CB        -81.2254   23.1573  -77.6980 C.3       3 UNK        -0.1996 
     59 N         -81.2249   25.3567  -76.5960 N.am      3 UNK        -0.4254 
     60 C         -81.0519   26.6834  -76.5093 C.2       2 UNK         0.5004 
     61 O         -80.3154   27.3260  -77.2573 O.2       2 UNK        -0.5226 
     62 CA        -81.8148   27.4256  -75.3962 C.3       2 UNK         0.0269 
     63 CB        -83.1263   28.0103  -75.9445 C.3       2 UNK        -0.1926 
     64 N         -82.1081   26.6089  -74.2125 N.am      2 UNK        -0.4687 
     65 C         -81.1839   26.0639  -73.4073 C.2       1 UNK         0.5165 
     66 O         -79.9747   26.1509  -73.6187 O.2       1 UNK        -0.5079 
     67 H67       -83.5599   22.1745  -74.9835 H         1 UNK         0.0900 
     68 H68       -82.9818   21.1548  -73.6635 H         1 UNK         0.0900 
     69 H69       -84.2661   22.3301  -73.3730 H         1 UNK         0.0900 
     70 H70       -83.5344   24.1433  -72.3099 H         1 UNK         0.2959 
     71 H71       -82.3756   25.9054  -71.6608 H         1 UNK         0.1079 
     72 H72       -81.1255   24.0278  -70.5207 H         1 UNK         0.0837 
     73 H73       -79.9169   24.0912  -71.7520 H         1 UNK         0.0837 
     74 H74       -77.5499   25.2732  -70.1647 H         1 UNK         0.0685 
     75 H75       -78.0831   25.4387  -71.8201 H         1 UNK         0.0685 
     76 H76       -79.0221   28.0393  -72.2520 H         1 UNK         0.1434 
     77 H77       -75.7734   30.7259  -71.5230 H         1 UNK         0.1329 
     78 H78       -75.7282   26.7894  -69.8169 H         1 UNK         0.1335 
     79 H79       -74.0183   28.3569  -69.2067 H         1 UNK         0.0680 
     80 H80       -74.2156   30.0560  -69.5323 H         1 UNK         0.0680 
     81 H81       -73.4211   31.2935  -71.3374 H         1 UNK         0.1032 
     82 H82       -71.8662   30.9645  -72.0264 H         1 UNK         0.1032 
     83 H83       -74.5137   30.2484  -73.3775 H         1 UNK         0.0461 
     84 H84       -73.7981   33.3360  -75.5610 H         1 UNK         0.3453 
     85 H85       -73.4021   31.6675  -75.8955 H         1 UNK         0.3453 
     86 H86       -73.4427   29.0846  -74.8379 H         1 UNK         0.2984 
     87 H87       -71.7009   29.0451  -76.7820 H         1 UNK         0.0554 
     88 H88       -69.3558   29.7670  -76.6151 H         1 UNK         0.0847 
     89 H89       -69.4093   28.0425  -76.9434 H         1 UNK         0.0847 
     90 H90       -69.0390   28.6252  -75.3207 H         1 UNK         0.0847 
     91 H91       -72.3994   27.0961  -76.0263 H         1 UNK         0.3141 
     92 H92       -71.2914   24.6639  -73.8781 H         1 UNK         0.0743 
     93 H93       -72.4355   25.9207  -72.0569 H         1 UNK         0.0784 
     94 H94       -73.7268   26.3875  -73.1546 H         1 UNK         0.0784 
     95 H95       -73.5072   24.6942  -72.7150 H         1 UNK         0.0784 
     96 H96       -73.8086   25.0415  -75.2234 H         1 UNK         0.3213 
     97 H97       -72.6957   23.8552  -78.4159 H         1 UNK         0.0855 
     98 H98       -74.5529   22.7335  -76.2467 H         1 UNK         0.0814 
     99 H99       -73.2562   21.8639  -77.0500 H         1 UNK         0.0814 
    100 H100      -74.6596   22.3792  -77.9713 H         1 UNK         0.0814 
    101 H101      -75.1991   24.8803  -77.3963 H         1 UNK         0.3105 
    102 H102      -74.7551   28.2040  -78.5804 H         1 UNK         0.0547 
    103 H103      -76.7683   27.6299  -79.9074 H         1 UNK         0.0837 
    104 H104      -75.3434   26.9027  -80.6306 H         1 UNK         0.0837 
    105 H105      -76.4536   25.9078  -79.6980 H         1 UNK         0.0837 
    106 H106      -76.9800   26.7795  -77.4433 H         1 UNK         0.3020 
    107 H107      -76.2943   27.6541  -74.0448 H         1 UNK         0.1245 
    108 H108      -78.7660   28.3800  -74.5362 H         1 UNK         0.0781 
    109 H109      -78.2600   28.7035  -76.1569 H         1 UNK         0.0781 
    110 H110      -79.1500   30.3531  -73.0316 H         1 UNK         0.0836 
    111 H111      -77.9004   31.4991  -72.6108 H         1 UNK         0.0836 
    112 H112      -78.4223   26.1562  -74.9261 H         1 UNK         0.3022 
    113 H113      -76.9824   23.0839  -75.8089 H         1 UNK         0.0747 
    114 H114      -78.2087   22.0184  -73.9548 H         1 UNK         0.0793 
    115 H115      -76.7549   22.7995  -73.3461 H         1 UNK         0.0793 
    116 H116      -78.3215   23.5587  -73.1142 H         1 UNK         0.0793 
    117 H117      -79.6884   23.7897  -75.1763 H         1 UNK         0.3047 
    118 H118      -80.4513   24.9872  -78.4969 H         1 UNK         0.0822 
    119 H119      -80.7015   22.5173  -78.4092 H         1 UNK         0.0807 
    120 H120      -82.2342   23.3087  -78.0823 H         1 UNK         0.0807 
    121 H121      -81.3034   22.6046  -76.7616 H         1 UNK         0.0807 
    122 H122      -81.8190   24.9032  -75.9172 H         1 UNK         0.2946 
    123 H123      -81.1810   28.2550  -75.0751 H         1 UNK         0.1144 
    124 H124      -83.6295   28.6262  -75.1990 H         1 UNK         0.0793 
    125 H125      -83.8180   27.2273  -76.2579 H         1 UNK         0.0793 
    126 H126      -82.9383   28.6452  -76.8117 H         1 UNK         0.0793 
    127 H127      -83.0833   26.4600  -73.9949 H         1 UNK         0.2896 
@<TRIPOS>BOND
     1    1    2 1    
     2    1   67 1    
     3    1   68 1    
     4    1   69 1    
     5    2    3 2    
     6    2    4 am   BACKBONE|DICT|INTERRES
     7    4    5 1    
     8    4   70 1    
     9    5    6 1    
    10    5   65 1    
    11    5   71 1    
    12    6    7 1    
    13    6   72 1    
    14    6   73 1    
    15    7    8 1    
    16    8    9 1    
    17    8   74 1    
    18    8   75 1    
    19    9   10 ar   
    20    9   14 ar   
    21   10   11 ar   
    22   10   76 1    
    23   11   12 ar   
    24   11   48 1    
    25   12   13 ar   
    26   12   77 1    
    27   13   14 ar   
    28   13   15 1    
    29   14   78 1    
    30   15   16 1    
    31   15   79 1    
    32   15   80 1    
    33   16   17 1    
    34   17   18 1    
    35   17   81 1    
    36   17   82 1    
    37   18   19 1    
    38   18   22 1    
    39   18   83 1    
    40   19   20 am   BACKBONE|DICT|INTERRES
    41   19   21 2    
    42   20   84 1    
    43   20   85 1    
    44   22   23 am   BACKBONE|DICT|INTERRES
    45   22   86 1    
    46   23   24 2    
    47   23   25 1    
    48   25   26 1    
    49   25   27 1    
    50   25   87 1    
    51   26   88 1    
    52   26   89 1    
    53   26   90 1    
    54   27   28 am   BACKBONE|DICT|INTERRES
    55   27   91 1    
    56   28   29 2    
    57   28   30 1    
    58   30   31 1    
    59   30   32 1    
    60   30   92 1    
    61   31   93 1    
    62   31   94 1    
    63   31   95 1    
    64   32   33 am   BACKBONE|DICT|INTERRES
    65   32   96 1    
    66   33   34 2    
    67   33   35 1    
    68   35   36 1    
    69   35   37 1    
    70   35   97 1    
    71   36   98 1    
    72   36   99 1    
    73   36  100 1    
    74   37   38 am   BACKBONE|DICT|INTERRES
    75   37  101 1    
    76   38   39 2    
    77   38   40 1    
    78   40   41 1    
    79   40   42 1    
    80   40  102 1    
    81   41  103 1    
    82   41  104 1    
    83   41  105 1    
    84   42   43 am   BACKBONE|DICT|INTERRES
    85   42  106 1    
    86   43   44 2    
    87   43   45 1    
    88   45   46 1    
    89   45   49 1    
    90   45  107 1    
    91   46   47 1    
    92   46  108 1    
    93   46  109 1    
    94   47   48 1    
    95   48  110 1    
    96   48  111 1    
    97   49   50 am   BACKBONE|DICT|INTERRES
    98   49  112 1    
    99   50   51 2    
   100   50   52 1    
   101   52   53 1    
   102   52   54 1    
   103   52  113 1    
   104   53  114 1    
   105   53  115 1    
   106   53  116 1    
   107   54   55 am   BACKBONE|DICT|INTERRES
   108   54  117 1    
   109   55   56 2    
   110   55   57 1    
   111   57   58 1    
   112   57   59 1    
   113   57  118 1    
   114   58  119 1    
   115   58  120 1    
   116   58  121 1    
   117   59   60 am   BACKBONE|DICT|INTERRES
   118   59  122 1    
   119   60   61 2    
   120   60   62 1    
   121   62   63 1    
   122   62   64 1    
   123   62  123 1    
   124   63  124 1    
   125   63  125 1    
   126   63  126 1    
   127   64   65 am   BACKBONE|DICT|INTERRES
   128   64  127 1    
   129   65   66 2    
@<TRIPOS>SUBSTRUCTURE
     1 UNK         1 GROUP             0       ****    0 ROOT    
