@<TRIPOS>MOLECULE
3R135
127   129    1
SMALL
USER_CHARGES


@<TRIPOS>ATOM
      1 CA        -84.3647   29.0614  -76.8679 C.3       0 UNK        -0.1998 
      2 C         -82.9055   28.6891  -76.6529 C.2       0 UNK         0.4909 
      3 O         -82.0474   29.1002  -77.4341 O.2       0 UNK        -0.5240 
      4 N         -82.6174   27.9126  -75.5992 N.am      1 UNK        -0.4739 
      5 CA        -81.2689   27.4416  -75.2533 C.3       1 UNK         0.0864 
      6 C6        -81.1935   27.0333  -73.7591 C.3       11 UNK        -0.0881 
      7 S7        -79.4947   27.1067  -73.1015 S.3       11 UNK        -0.2682 
      8 C8        -79.6016   28.4206  -71.8508 C.3       11 UNK         0.0289 
      9 C9        -78.2386   28.6452  -71.2153 C.ar      11 UNK        -0.0687 
     10 C10       -77.6786   27.6530  -70.4056 C.ar      11 UNK        -0.0823 
     11 C11       -76.3963   27.8108  -69.8745 C.ar      11 UNK        -0.0830 
     12 C12       -75.6872   28.9886  -70.1250 C.ar      11 UNK        -0.1021 
     13 C13       -76.2425   29.9946  -70.9182 C.ar      11 UNK        -0.0753 
     14 C14       -77.5193   29.8192  -71.4614 C.ar      11 UNK        -0.0933 
     15 C15       -75.4557   31.2637  -71.1989 C.3       11 UNK         0.0166 
     16 S16       -74.5159   31.1147  -72.7504 S.3       11 UNK        -0.2615 
     17 C17       -72.7755   31.3145  -72.2207 C.3       11 UNK        -0.0865 
     18 CA        -71.8474   30.1125  -72.5676 C.3       10 UNK         0.0862 
     19 C         -71.8820   28.9373  -71.5525 C.2       10 UNK         0.5551 
     20 N         -71.5971   27.7100  -71.9690 N.am      10 UNK        -0.7319 
     21 O         -72.1192   29.1396  -70.3645 O.2       10 UNK        -0.5018 
     22 N         -71.9615   29.6943  -73.9749 N.am      10 UNK        -0.4509 
     23 C         -71.3602   30.3141  -74.9973 C.2       10 UNK         0.4899 
     24 O         -70.5660   31.2458  -74.8526 O.2       10 UNK        -0.4839 
     25 CA        -71.7315   29.8522  -76.4204 C.3       9 UNK         0.0222 
     26 CB        -70.6976   30.2804  -77.4846 C.3       9 UNK        -0.1966 
     27 N         -72.0338   28.4216  -76.5274 N.am      9 UNK        -0.4218 
     28 C         -71.2024   27.3859  -76.3268 C.2       9 UNK         0.5020 
     29 O         -70.0242   27.5117  -75.9905 O.2       9 UNK        -0.5274 
     30 CA        -71.7690   25.9640  -76.5277 C.3       8 UNK         0.0270 
     31 CB        -71.5227   25.0854  -75.2875 C.3       8 UNK        -0.1976 
     32 N         -73.2023   25.9686  -76.8308 N.am      8 UNK        -0.4313 
     33 C         -73.7394   26.0514  -78.0561 C.2       8 UNK         0.5041 
     34 O         -73.0813   26.0193  -79.0960 O.2       8 UNK        -0.5577 
     35 CA        -75.2659   26.2448  -78.1347 C.3       7 UNK         0.0284 
     36 CB        -75.9706   24.9127  -78.4396 C.3       7 UNK        -0.1958 
     37 N         -75.8231   26.8309  -76.9098 N.am      7 UNK        -0.4454 
     38 C         -75.6445   28.1084  -76.5393 C.2       7 UNK         0.5089 
     39 O         -75.0351   28.9309  -77.2226 O.2       7 UNK        -0.5125 
     40 CA        -76.1638   28.5282  -75.1521 C.3       6 UNK         0.0408 
     41 CB        -77.5908   29.0750  -75.2665 C.3       6 UNK        -0.1791 
     42 N         -76.0974   27.4467  -74.1596 N.am      6 UNK        -0.4762 
     43 C         -74.9412   26.9124  -73.7370 C.2       6 UNK         0.5007 
     44 O         -73.8438   27.3594  -74.0765 O.2       6 UNK        -0.5032 
     45 CA        -74.9742   25.6245  -72.8802 C.3       5 UNK         0.0783 
     46 C46       -74.4267   25.8443  -71.4327 C.3       11 UNK        -0.0857 
     47 S47       -75.4608   25.2007  -70.0620 S.3       11 UNK        -0.2512 
     48 C48       -75.7610   26.6944  -69.0600 C.3       11 UNK         0.0225 
     49 N         -76.2093   24.8282  -72.9465 N.am      5 UNK        -0.4615 
     50 C         -76.7413   24.2884  -74.0493 C.2       4 UNK         0.5053 
     51 O         -76.3764   24.5774  -75.1909 O.2       4 UNK        -0.5105 
     52 CA        -77.8085   23.2019  -73.8439 C.3       4 UNK         0.0263 
     53 CB        -78.9930   23.6462  -72.9654 C.3       4 UNK        -0.1981 
     54 N         -78.3014   22.7661  -75.1460 N.am      4 UNK        -0.4224 
     55 C         -78.8357   21.5736  -75.4292 C.2       3 UNK         0.4895 
     56 O         -78.9473   20.6626  -74.6060 O.2       3 UNK        -0.5091 
     57 CA        -79.3286   21.3733  -76.8793 C.3       3 UNK         0.0250 
     58 CB        -80.2786   20.1651  -77.0279 C.3       3 UNK        -0.1996 
     59 N         -79.9330   22.5812  -77.4641 N.am      3 UNK        -0.4254 
     60 C         -80.9836   23.2682  -76.9886 C.2       2 UNK         0.5004 
     61 O         -81.6302   22.9537  -75.9862 O.2       2 UNK        -0.5226 
     62 CA        -81.3974   24.5167  -77.7841 C.3       2 UNK         0.0269 
     63 CB        -82.6312   24.2238  -78.6533 C.3       2 UNK        -0.1926 
     64 N         -81.6934   25.6356  -76.8884 N.am      2 UNK        -0.4687 
     65 C         -80.7685   26.3156  -76.1945 C.2       1 UNK         0.5165 
     66 O         -79.5609   26.0921  -76.2954 O.2       1 UNK        -0.5079 
     67 H67       -84.7052   28.6992  -77.8374 H         1 UNK         0.0900 
     68 H68       -85.0120   28.6370  -76.1008 H         1 UNK         0.0900 
     69 H69       -84.4820   30.1445  -76.8485 H         1 UNK         0.0900 
     70 H70       -83.3631   27.6069  -74.9895 H         1 UNK         0.2959 
     71 H71       -80.5982   28.2903  -75.4014 H         1 UNK         0.1079 
     72 H72       -81.8163   27.6967  -73.1567 H         1 UNK         0.0837 
     73 H73       -81.5946   26.0300  -73.6025 H         1 UNK         0.0837 
     74 H74       -79.9711   29.3357  -72.3162 H         1 UNK         0.0685 
     75 H75       -80.3234   28.1392  -71.0827 H         1 UNK         0.0685 
     76 H76       -78.2250   26.7372  -70.2253 H         1 UNK         0.1434 
     77 H77       -74.6924   29.1162  -69.7207 H         1 UNK         0.1329 
     78 H78       -77.9421   30.5901  -72.0906 H         1 UNK         0.1335 
     79 H79       -76.1378   32.1110  -71.2829 H         1 UNK         0.0680 
     80 H80       -74.7989   31.4898  -70.3584 H         1 UNK         0.0680 
     81 H81       -72.3961   32.2027  -72.7278 H         1 UNK         0.1032 
     82 H82       -72.7156   31.5574  -71.1593 H         1 UNK         0.1032 
     83 H83       -70.8288   30.4813  -72.4330 H         1 UNK         0.0461 
     84 H84       -71.5777   26.9571  -71.3015 H         1 UNK         0.3453 
     85 H85       -71.3857   27.5376  -72.9383 H         1 UNK         0.3453 
     86 H86       -72.6115   28.9328  -74.1503 H         1 UNK         0.2984 
     87 H87       -72.6650   30.3648  -76.6561 H         1 UNK         0.0554 
     88 H88       -70.5910   31.3655  -77.5134 H         1 UNK         0.0847 
     89 H89       -70.9989   29.9611  -78.4822 H         1 UNK         0.0847 
     90 H90       -69.7106   29.8637  -77.2818 H         1 UNK         0.0847 
     91 H91       -72.9916   28.2144  -76.7816 H         1 UNK         0.3141 
     92 H92       -71.2273   25.5197  -77.3653 H         1 UNK         0.0743 
     93 H93       -71.9681   25.5123  -74.3894 H         1 UNK         0.0784 
     94 H94       -71.9304   24.0835  -75.4225 H         1 UNK         0.0784 
     95 H95       -70.4548   24.9739  -75.0952 H         1 UNK         0.0784 
     96 H96       -73.8249   26.0322  -76.0370 H         1 UNK         0.3213 
     97 H97       -75.4688   26.9311  -78.9598 H         1 UNK         0.0855 
     98 H98       -75.7406   24.1512  -77.6940 H         1 UNK         0.0814 
     99 H99       -75.6552   24.5214  -79.4076 H         1 UNK         0.0814 
    100 H100      -77.0535   25.0341  -78.4746 H         1 UNK         0.0814 
    101 H101      -76.2864   26.1894  -76.2698 H         1 UNK         0.3105 
    102 H102      -75.5252   29.3392  -74.8006 H         1 UNK         0.0547 
    103 H103      -77.6323   29.9131  -75.9633 H         1 UNK         0.0837 
    104 H104      -78.2753   28.3131  -75.6344 H         1 UNK         0.0837 
    105 H105      -77.9595   29.4351  -74.3078 H         1 UNK         0.0837 
    106 H106      -76.9705   27.0382  -73.8524 H         1 UNK         0.3020 
    107 H107      -74.2380   24.9859  -73.3740 H         1 UNK         0.1245 
    108 H108      -74.2107   26.8963  -71.2438 H         1 UNK         0.0781 
    109 H109      -73.4562   25.3537  -71.3445 H         1 UNK         0.0781 
    110 H110      -74.8169   27.0212  -68.6209 H         1 UNK         0.0836 
    111 H111      -76.4157   26.4389  -68.2258 H         1 UNK         0.0836 
    112 H112      -76.5783   24.5610  -72.0444 H         1 UNK         0.3022 
    113 H113      -77.3026   22.3656  -73.3572 H         1 UNK         0.0747 
    114 H114      -79.5904   22.7877  -72.6584 H         1 UNK         0.0793 
    115 H115      -78.6729   24.1539  -72.0553 H         1 UNK         0.0793 
    116 H116      -79.6549   24.3174  -73.5108 H         1 UNK         0.0793 
    117 H117      -78.1842   23.4511  -75.8824 H         1 UNK         0.3047 
    118 H118      -78.4358   21.1616  -77.4697 H         1 UNK         0.0822 
    119 H119      -79.7897   19.2410  -76.7168 H         1 UNK         0.0807 
    120 H120      -80.5915   20.0307  -78.0633 H         1 UNK         0.0807 
    121 H121      -81.1757   20.2788  -76.4183 H         1 UNK         0.0807 
    122 H122      -79.4785   22.9264  -78.2985 H         1 UNK         0.2946 
    123 H123      -80.5746   24.8142  -78.4387 H         1 UNK         0.1144 
    124 H124      -82.4325   23.4086  -79.3504 H         1 UNK         0.0793 
    125 H125      -82.9155   25.0937  -79.2458 H         1 UNK         0.0793 
    126 H126      -83.4913   23.9327  -78.0487 H         1 UNK         0.0793 
    127 H127      -82.6659   25.8591  -76.7382 H         1 UNK         0.2896 
@<TRIPOS>BOND
     1    1    2 1    
     2    1   67 1    
     3    1   68 1    
     4    1   69 1    
     5    2    3 2    
     6    2    4 am   BACKBONE|DICT|INTERRES
     7    4    5 1    
     8    4   70 1    
     9    5    6 1    
    10    5   65 1    
    11    5   71 1    
    12    6    7 1    
    13    6   72 1    
    14    6   73 1    
    15    7    8 1    
    16    8    9 1    
    17    8   74 1    
    18    8   75 1    
    19    9   10 ar   
    20    9   14 ar   
    21   10   11 ar   
    22   10   76 1    
    23   11   12 ar   
    24   11   48 1    
    25   12   13 ar   
    26   12   77 1    
    27   13   14 ar   
    28   13   15 1    
    29   14   78 1    
    30   15   16 1    
    31   15   79 1    
    32   15   80 1    
    33   16   17 1    
    34   17   18 1    
    35   17   81 1    
    36   17   82 1    
    37   18   19 1    
    38   18   22 1    
    39   18   83 1    
    40   19   20 am   BACKBONE|DICT|INTERRES
    41   19   21 2    
    42   20   84 1    
    43   20   85 1    
    44   22   23 am   BACKBONE|DICT|INTERRES
    45   22   86 1    
    46   23   24 2    
    47   23   25 1    
    48   25   26 1    
    49   25   27 1    
    50   25   87 1    
    51   26   88 1    
    52   26   89 1    
    53   26   90 1    
    54   27   28 am   BACKBONE|DICT|INTERRES
    55   27   91 1    
    56   28   29 2    
    57   28   30 1    
    58   30   31 1    
    59   30   32 1    
    60   30   92 1    
    61   31   93 1    
    62   31   94 1    
    63   31   95 1    
    64   32   33 am   BACKBONE|DICT|INTERRES
    65   32   96 1    
    66   33   34 2    
    67   33   35 1    
    68   35   36 1    
    69   35   37 1    
    70   35   97 1    
    71   36   98 1    
    72   36   99 1    
    73   36  100 1    
    74   37   38 am   BACKBONE|DICT|INTERRES
    75   37  101 1    
    76   38   39 2    
    77   38   40 1    
    78   40   41 1    
    79   40   42 1    
    80   40  102 1    
    81   41  103 1    
    82   41  104 1    
    83   41  105 1    
    84   42   43 am   BACKBONE|DICT|INTERRES
    85   42  106 1    
    86   43   44 2    
    87   43   45 1    
    88   45   46 1    
    89   45   49 1    
    90   45  107 1    
    91   46   47 1    
    92   46  108 1    
    93   46  109 1    
    94   47   48 1    
    95   48  110 1    
    96   48  111 1    
    97   49   50 am   BACKBONE|DICT|INTERRES
    98   49  112 1    
    99   50   51 2    
   100   50   52 1    
   101   52   53 1    
   102   52   54 1    
   103   52  113 1    
   104   53  114 1    
   105   53  115 1    
   106   53  116 1    
   107   54   55 am   BACKBONE|DICT|INTERRES
   108   54  117 1    
   109   55   56 2    
   110   55   57 1    
   111   57   58 1    
   112   57   59 1    
   113   57  118 1    
   114   58  119 1    
   115   58  120 1    
   116   58  121 1    
   117   59   60 am   BACKBONE|DICT|INTERRES
   118   59  122 1    
   119   60   61 2    
   120   60   62 1    
   121   62   63 1    
   122   62   64 1    
   123   62  123 1    
   124   63  124 1    
   125   63  125 1    
   126   63  126 1    
   127   64   65 am   BACKBONE|DICT|INTERRES
   128   64  127 1    
   129   65   66 2    
@<TRIPOS>SUBSTRUCTURE
     1 UNK         1 GROUP             0       ****    0 ROOT    
