@<TRIPOS>MOLECULE
3R135
127   129    1
SMALL
USER_CHARGES


@<TRIPOS>ATOM
      1 CA        -83.1331   27.4863  -70.3210 C.3       0 UNK        -0.1998 
      2 C         -83.2706   27.5408  -71.8351 C.2       0 UNK         0.4909 
      3 O         -84.3535   27.2858  -72.3626 O.2       0 UNK        -0.5240 
      4 N         -82.1795   27.8722  -72.5371 N.am      1 UNK        -0.4739 
      5 CA        -82.1229   27.9633  -74.0017 C.3       1 UNK         0.0864 
      6 C6        -80.8859   28.7638  -74.4777 C.3       11 UNK        -0.0881 
      7 S7        -80.9476   30.5343  -74.0347 S.3       11 UNK        -0.2682 
      8 C8        -80.0993   30.6182  -72.4202 C.3       11 UNK         0.0289 
      9 C9        -78.7406   29.9282  -72.4062 C.ar      11 UNK        -0.0687 
     10 C10       -78.5066   28.8638  -71.5296 C.ar      11 UNK        -0.0823 
     11 C11       -77.2654   28.2212  -71.4962 C.ar      11 UNK        -0.0830 
     12 C12       -76.2479   28.6673  -72.3481 C.ar      11 UNK        -0.1021 
     13 C13       -76.4710   29.7216  -73.2382 C.ar      11 UNK        -0.0753 
     14 C14       -77.7170   30.3538  -73.2583 C.ar      11 UNK        -0.0933 
     15 C15       -75.3836   30.1356  -74.2173 C.3       11 UNK         0.0166 
     16 S16       -74.4304   31.5671  -73.6394 S.3       11 UNK        -0.2615 
     17 C17       -73.1513   31.6185  -74.9447 C.3       11 UNK        -0.0865 
     18 CA        -71.7179   31.1747  -74.5226 C.3       10 UNK         0.0862 
     19 C         -70.9726   32.1893  -73.5985 C.2       10 UNK         0.5551 
     20 N         -69.9946   31.7636  -72.8085 N.am      10 UNK        -0.7319 
     21 O         -71.2437   33.3875  -73.6330 O.2       10 UNK        -0.5018 
     22 N         -71.6106   29.7419  -74.1723 N.am      10 UNK        -0.4509 
     23 C         -71.8883   29.1534  -72.9992 C.2       10 UNK         0.4899 
     24 O         -72.3073   29.7477  -72.0064 O.2       10 UNK        -0.4839 
     25 CA        -71.6075   27.6434  -72.9046 C.3       9 UNK         0.0222 
     26 CB        -72.3507   26.9698  -71.7365 C.3       9 UNK        -0.1966 
     27 N         -71.9253   26.9204  -74.1394 N.am      9 UNK        -0.4218 
     28 C         -71.0188   26.5436  -75.0489 C.2       9 UNK         0.5020 
     29 O         -69.8602   26.9610  -75.0675 O.2       9 UNK        -0.5274 
     30 CA        -71.4514   25.4967  -76.0822 C.3       8 UNK         0.0270 
     31 CB        -71.6352   24.1273  -75.4052 C.3       8 UNK        -0.1976 
     32 N         -72.6875   25.8535  -76.7825 N.am      8 UNK        -0.4313 
     33 C         -72.7593   26.0880  -78.1008 C.2       8 UNK         0.5041 
     34 O         -71.7699   26.1845  -78.8294 O.2       8 UNK        -0.5577 
     35 CA        -74.1523   26.1856  -78.7511 C.3       7 UNK         0.0284 
     36 CB        -74.4139   24.9529  -79.6334 C.3       7 UNK        -0.1958 
     37 N         -75.2504   26.3124  -77.7935 N.am      7 UNK        -0.4454 
     38 C         -75.5941   27.4582  -77.1933 C.2       7 UNK         0.5089 
     39 O         -75.0180   28.5312  -77.3728 O.2       7 UNK        -0.5125 
     40 CA        -76.7726   27.3864  -76.2115 C.3       6 UNK         0.0408 
     41 CB        -78.1042   27.4534  -76.9728 C.3       6 UNK        -0.1791 
     42 N         -76.7623   26.2113  -75.3367 N.am      6 UNK        -0.4762 
     43 C         -75.7556   25.8176  -74.5402 C.2       6 UNK         0.5007 
     44 O         -74.6357   26.3317  -74.5300 O.2       6 UNK        -0.5032 
     45 CA        -76.0403   24.6095  -73.6333 C.3       5 UNK         0.0783 
     46 C46       -76.9383   24.9831  -72.4259 C.3       11 UNK        -0.0857 
     47 S47       -75.9627   25.7348  -71.0807 S.3       11 UNK        -0.2512 
     48 C48       -77.0463   27.0837  -70.4984 C.3       11 UNK         0.0225 
     49 N         -76.6128   23.5276  -74.4331 N.am      5 UNK        -0.4615 
     50 C         -75.8841   22.6218  -75.0994 C.2       4 UNK         0.5053 
     51 O         -74.6605   22.5298  -75.0106 O.2       4 UNK        -0.5105 
     52 CA        -76.6346   21.6540  -76.0315 C.3       4 UNK         0.0263 
     53 CB        -76.9301   20.3320  -75.3052 C.3       4 UNK        -0.1981 
     54 N         -77.8835   22.1990  -76.5677 N.am      4 UNK        -0.4224 
     55 C         -77.9718   23.2504  -77.3945 C.2       3 UNK         0.4895 
     56 O         -77.0035   23.8848  -77.8159 O.2       3 UNK        -0.5091 
     57 CA        -79.3938   23.6979  -77.7731 C.3       3 UNK         0.0250 
     58 CB        -79.9173   22.8726  -78.9594 C.3       3 UNK        -0.1996 
     59 N         -80.3663   23.6484  -76.6716 N.am      3 UNK        -0.4254 
     60 C         -80.2250   24.2519  -75.4826 C.2       2 UNK         0.5004 
     61 O         -79.1956   24.8221  -75.1137 O.2       2 UNK        -0.5226 
     62 CA        -81.4242   24.2045  -74.5245 C.3       2 UNK         0.0269 
     63 CB        -81.1537   23.2189  -73.3764 C.3       2 UNK        -0.1926 
     64 N         -81.6717   25.5364  -73.9696 N.am      2 UNK        -0.4687 
     65 C         -82.1341   26.5767  -74.6799 C.2       1 UNK         0.5165 
     66 O         -82.5416   26.4782  -75.8386 O.2       1 UNK        -0.5079 
     67 H67       -82.1260   27.7417  -69.9920 H         1 UNK         0.0900 
     68 H68       -83.8282   28.1852  -69.8565 H         1 UNK         0.0900 
     69 H69       -83.3643   26.4847  -69.9593 H         1 UNK         0.0900 
     70 H70       -81.3190   28.0783  -72.0539 H         1 UNK         0.2959 
     71 H71       -83.0197   28.4851  -74.3443 H         1 UNK         0.1079 
     72 H72       -80.8212   28.7357  -75.5673 H         1 UNK         0.0837 
     73 H73       -79.9619   28.3067  -74.1202 H         1 UNK         0.0837 
     74 H74       -79.9609   31.6675  -72.1564 H         1 UNK         0.0685 
     75 H75       -80.7568   30.2025  -71.6559 H         1 UNK         0.0685 
     76 H76       -79.2902   28.5402  -70.8589 H         1 UNK         0.1434 
     77 H77       -75.2807   28.1883  -72.3338 H         1 UNK         0.1329 
     78 H78       -77.8954   31.1691  -73.9461 H         1 UNK         0.1335 
     79 H79       -75.8303   30.3809  -75.1821 H         1 UNK         0.0680 
     80 H80       -74.7057   29.2986  -74.3959 H         1 UNK         0.0680 
     81 H81       -73.4748   31.0065  -75.7883 H         1 UNK         0.1032 
     82 H82       -73.1248   32.6355  -75.3401 H         1 UNK         0.1032 
     83 H83       -71.1319   31.2377  -75.4402 H         1 UNK         0.0461 
     84 H84       -69.5057   32.4249  -72.2262 H         1 UNK         0.3453 
     85 H85       -69.7589   30.7852  -72.7722 H         1 UNK         0.3453 
     86 H86       -71.2293   29.1509  -74.8973 H         1 UNK         0.2984 
     87 H87       -70.5408   27.5499  -72.6907 H         1 UNK         0.0554 
     88 H88       -72.1022   27.4367  -70.7825 H         1 UNK         0.0847 
     89 H89       -72.0877   25.9152  -71.6547 H         1 UNK         0.0847 
     90 H90       -73.4294   27.0331  -71.8613 H         1 UNK         0.0847 
     91 H91       -72.8934   26.6181  -74.2439 H         1 UNK         0.3141 
     92 H92       -70.6272   25.3944  -76.7914 H         1 UNK         0.0743 
     93 H93       -72.4434   24.1402  -74.6727 H         1 UNK         0.0784 
     94 H94       -71.8649   23.3522  -76.1366 H         1 UNK         0.0784 
     95 H95       -70.7268   23.8221  -74.8840 H         1 UNK         0.0784 
     96 H96       -73.5411   25.8650  -76.2355 H         1 UNK         0.3213 
     97 H97       -74.1472   27.0675  -79.3955 H         1 UNK         0.0855 
     98 H98       -74.4208   24.0332  -79.0468 H         1 UNK         0.0814 
     99 H99       -73.6444   24.8466  -80.3993 H         1 UNK         0.0814 
    100 H100      -75.3727   25.0281  -80.1468 H         1 UNK         0.0814 
    101 H101      -75.8040   25.4782  -77.6134 H         1 UNK         0.3105 
    102 H102      -76.7273   28.2557  -75.5619 H         1 UNK         0.0547 
    103 H103      -78.2026   28.4035  -77.4993 H         1 UNK         0.0837 
    104 H104      -78.1796   26.6618  -77.7169 H         1 UNK         0.0837 
    105 H105      -78.9561   27.3632  -76.3004 H         1 UNK         0.0837 
    106 H106      -77.6418   25.6996  -75.2754 H         1 UNK         0.3020 
    107 H107      -75.0784   24.2681  -73.2419 H         1 UNK         0.1245 
    108 H108      -77.4024   24.0858  -72.0137 H         1 UNK         0.0781 
    109 H109      -77.7633   25.6359  -72.7191 H         1 UNK         0.0781 
    110 H110      -76.6093   27.5066  -69.5931 H         1 UNK         0.0836 
    111 H111      -78.0011   26.6467  -70.2017 H         1 UNK         0.0836 
    112 H112      -77.6084   23.5852  -74.6113 H         1 UNK         0.3022 
    113 H113      -75.9762   21.4419  -76.8768 H         1 UNK         0.0747 
    114 H114      -77.3825   19.6018  -75.9765 H         1 UNK         0.0793 
    115 H115      -76.0127   19.8869  -74.9170 H         1 UNK         0.0793 
    116 H116      -77.6046   20.4769  -74.4602 H         1 UNK         0.0793 
    117 H117      -78.7398   21.7532  -76.2724 H         1 UNK         0.3047 
    118 H118      -79.3316   24.7376  -78.0952 H         1 UNK         0.0822 
    119 H119      -80.8712   23.2571  -79.3210 H         1 UNK         0.0807 
    120 H120      -80.0562   21.8237  -78.6945 H         1 UNK         0.0807 
    121 H121      -79.2194   22.9074  -79.7974 H         1 UNK         0.0807 
    122 H122      -81.2444   23.1937  -76.8778 H         1 UNK         0.2946 
    123 H123      -82.3150   23.8818  -75.0684 H         1 UNK         0.1144 
    124 H124      -81.9995   23.1678  -72.6904 H         1 UNK         0.0793 
    125 H125      -80.2710   23.5005  -72.8002 H         1 UNK         0.0793 
    126 H126      -80.9859   22.2109  -73.7579 H         1 UNK         0.0793 
    127 H127      -81.3393   25.7090  -73.0329 H         1 UNK         0.2896 
@<TRIPOS>BOND
     1    1    2 1    
     2    1   67 1    
     3    1   68 1    
     4    1   69 1    
     5    2    3 2    
     6    2    4 am   BACKBONE|DICT|INTERRES
     7    4    5 1    
     8    4   70 1    
     9    5    6 1    
    10    5   65 1    
    11    5   71 1    
    12    6    7 1    
    13    6   72 1    
    14    6   73 1    
    15    7    8 1    
    16    8    9 1    
    17    8   74 1    
    18    8   75 1    
    19    9   10 ar   
    20    9   14 ar   
    21   10   11 ar   
    22   10   76 1    
    23   11   12 ar   
    24   11   48 1    
    25   12   13 ar   
    26   12   77 1    
    27   13   14 ar   
    28   13   15 1    
    29   14   78 1    
    30   15   16 1    
    31   15   79 1    
    32   15   80 1    
    33   16   17 1    
    34   17   18 1    
    35   17   81 1    
    36   17   82 1    
    37   18   19 1    
    38   18   22 1    
    39   18   83 1    
    40   19   20 am   BACKBONE|DICT|INTERRES
    41   19   21 2    
    42   20   84 1    
    43   20   85 1    
    44   22   23 am   BACKBONE|DICT|INTERRES
    45   22   86 1    
    46   23   24 2    
    47   23   25 1    
    48   25   26 1    
    49   25   27 1    
    50   25   87 1    
    51   26   88 1    
    52   26   89 1    
    53   26   90 1    
    54   27   28 am   BACKBONE|DICT|INTERRES
    55   27   91 1    
    56   28   29 2    
    57   28   30 1    
    58   30   31 1    
    59   30   32 1    
    60   30   92 1    
    61   31   93 1    
    62   31   94 1    
    63   31   95 1    
    64   32   33 am   BACKBONE|DICT|INTERRES
    65   32   96 1    
    66   33   34 2    
    67   33   35 1    
    68   35   36 1    
    69   35   37 1    
    70   35   97 1    
    71   36   98 1    
    72   36   99 1    
    73   36  100 1    
    74   37   38 am   BACKBONE|DICT|INTERRES
    75   37  101 1    
    76   38   39 2    
    77   38   40 1    
    78   40   41 1    
    79   40   42 1    
    80   40  102 1    
    81   41  103 1    
    82   41  104 1    
    83   41  105 1    
    84   42   43 am   BACKBONE|DICT|INTERRES
    85   42  106 1    
    86   43   44 2    
    87   43   45 1    
    88   45   46 1    
    89   45   49 1    
    90   45  107 1    
    91   46   47 1    
    92   46  108 1    
    93   46  109 1    
    94   47   48 1    
    95   48  110 1    
    96   48  111 1    
    97   49   50 am   BACKBONE|DICT|INTERRES
    98   49  112 1    
    99   50   51 2    
   100   50   52 1    
   101   52   53 1    
   102   52   54 1    
   103   52  113 1    
   104   53  114 1    
   105   53  115 1    
   106   53  116 1    
   107   54   55 am   BACKBONE|DICT|INTERRES
   108   54  117 1    
   109   55   56 2    
   110   55   57 1    
   111   57   58 1    
   112   57   59 1    
   113   57  118 1    
   114   58  119 1    
   115   58  120 1    
   116   58  121 1    
   117   59   60 am   BACKBONE|DICT|INTERRES
   118   59  122 1    
   119   60   61 2    
   120   60   62 1    
   121   62   63 1    
   122   62   64 1    
   123   62  123 1    
   124   63  124 1    
   125   63  125 1    
   126   63  126 1    
   127   64   65 am   BACKBONE|DICT|INTERRES
   128   64  127 1    
   129   65   66 2    
@<TRIPOS>SUBSTRUCTURE
     1 UNK         1 GROUP             0       ****    0 ROOT    
