@<TRIPOS>MOLECULE
3R135
127   129    1
SMALL
USER_CHARGES


@<TRIPOS>ATOM
      1 CA        -85.3322   26.9260  -70.9221 C.3       0 UNK        -0.1998 
      2 C         -85.0254   27.0009  -72.4101 C.2       0 UNK         0.4909 
      3 O         -85.6881   26.3357  -73.2067 O.2       0 UNK        -0.5240 
      4 N         -84.0272   27.8086  -72.7908 N.am      1 UNK        -0.4739 
      5 CA        -83.5605   27.9852  -74.1726 C.3       1 UNK         0.0864 
      6 C6        -82.6940   29.2623  -74.3398 C.3       11 UNK        -0.0881 
      7 S7        -81.4003   29.4696  -73.0649 S.3       11 UNK        -0.2682 
      8 C8        -79.9210   28.9166  -73.9628 C.3       11 UNK         0.0289 
      9 C9        -78.7215   28.8282  -73.0333 C.ar      11 UNK        -0.0687 
     10 C10       -78.6364   27.7848  -72.1079 C.ar      11 UNK        -0.0823 
     11 C11       -77.5422   27.6875  -71.2430 C.ar      11 UNK        -0.0830 
     12 C12       -76.5306   28.6489  -71.3058 C.ar      11 UNK        -0.1021 
     13 C13       -76.6009   29.6941  -72.2312 C.ar      11 UNK        -0.0753 
     14 C14       -77.6985   29.7793  -73.0944 C.ar      11 UNK        -0.0933 
     15 C15       -75.4948   30.7349  -72.2855 C.3       11 UNK         0.0166 
     16 S16       -73.9853   30.0536  -73.0325 S.3       11 UNK        -0.2615 
     17 C17       -72.9698   31.5698  -73.1264 C.3       11 UNK        -0.0865 
     18 CA        -71.5236   31.3246  -73.6352 C.3       10 UNK         0.0862 
     19 C         -70.5820   30.7507  -72.5328 C.2       10 UNK         0.5551 
     20 N         -69.8336   29.6795  -72.7721 N.am      10 UNK        -0.7319 
     21 O         -70.5132   31.3044  -71.4381 O.2       10 UNK        -0.5018 
     22 N         -71.5379   30.5638  -74.8901 N.am      10 UNK        -0.4509 
     23 C         -70.6132   30.6081  -75.8526 C.2       10 UNK         0.4899 
     24 O         -69.6580   31.3861  -75.8600 O.2       10 UNK        -0.4839 
     25 CA        -70.7983   29.5745  -76.9780 C.3       9 UNK         0.0222 
     26 CB        -69.5900   29.4936  -77.9350 C.3       9 UNK        -0.1966 
     27 N         -71.1485   28.2463  -76.4537 N.am      9 UNK        -0.4218 
     28 C         -70.4081   27.4728  -75.6395 C.2       9 UNK         0.5020 
     29 O         -69.3134   27.8147  -75.1901 O.2       9 UNK        -0.5274 
     30 CA        -70.9761   26.1005  -75.2160 C.3       8 UNK         0.0270 
     31 CB        -71.2627   26.0898  -73.7048 C.3       8 UNK        -0.1976 
     32 N         -72.1912   25.7081  -75.9359 N.am      8 UNK        -0.4313 
     33 C         -72.2458   25.4027  -77.2418 C.2       8 UNK         0.5041 
     34 O         -71.2433   25.2635  -77.9436 O.2       8 UNK        -0.5577 
     35 CA        -73.6347   25.2761  -77.9026 C.3       7 UNK         0.0284 
     36 CB        -73.9269   23.8085  -78.2556 C.3       7 UNK        -0.1958 
     37 N         -74.7530   25.8133  -77.1184 N.am      7 UNK        -0.4454 
     38 C         -74.8795   27.0647  -76.6509 C.2       7 UNK         0.5089 
     39 O         -74.0706   27.9656  -76.8801 O.2       7 UNK        -0.5125 
     40 CA        -76.0740   27.3336  -75.7149 C.3       6 UNK         0.0408 
     41 CB        -77.2730   27.8331  -76.5326 C.3       6 UNK        -0.1791 
     42 N         -76.4746   26.1685  -74.9110 N.am      6 UNK        -0.4762 
     43 C         -75.6729   25.5022  -74.0615 C.2       6 UNK         0.5007 
     44 O         -74.4927   25.7968  -73.8703 O.2       6 UNK        -0.5032 
     45 CA        -76.2511   24.2394  -73.3904 C.3       5 UNK         0.0783 
     46 C46       -77.1748   24.5415  -72.1886 C.3       11 UNK        -0.0857 
     47 S47       -76.2983   25.2501  -70.7556 S.3       11 UNK        -0.2512 
     48 C48       -77.4564   26.5544  -70.2307 C.3       11 UNK         0.0225 
     49 N         -76.9511   23.4340  -74.3891 N.am      5 UNK        -0.4615 
     50 C         -76.3648   22.5335  -75.1874 C.2       4 UNK         0.5053 
     51 O         -75.1810   22.2101  -75.0986 O.2       4 UNK        -0.5105 
     52 CA        -77.2406   21.8823  -76.2744 C.3       4 UNK         0.0263 
     53 CB        -77.7439   20.5082  -75.8042 C.3       4 UNK        -0.1981 
     54 N         -78.3873   22.7045  -76.6729 N.am      4 UNK        -0.4224 
     55 C         -78.2966   23.8748  -77.3207 C.2       3 UNK         0.4895 
     56 O         -77.2337   24.3711  -77.6898 O.2       3 UNK        -0.5091 
     57 CA        -79.6078   24.6455  -77.5494 C.3       3 UNK         0.0250 
     58 CB        -80.2651   24.2096  -78.8681 C.3       3 UNK        -0.1996 
     59 N         -80.5738   24.5167  -76.4523 N.am      3 UNK        -0.4254 
     60 C         -80.3541   24.8907  -75.1840 C.2       2 UNK         0.5004 
     61 O         -79.2836   25.3524  -74.7824 O.2       2 UNK        -0.5226 
     62 CA        -81.5169   24.6957  -74.1951 C.3       2 UNK         0.0269 
     63 CB        -81.0298   24.0409  -72.8905 C.3       2 UNK        -0.1926 
     64 N         -82.1972   25.9523  -73.8724 N.am      2 UNK        -0.4687 
     65 C         -82.8622   26.7299  -74.7410 C.2       1 UNK         0.5165 
     66 O         -82.9683   26.4775  -75.9419 O.2       1 UNK        -0.5079 
     67 H67       -86.3606   27.2339  -70.7351 H         1 UNK         0.0900 
     68 H68       -84.6743   27.5688  -70.3373 H         1 UNK         0.0900 
     69 H69       -85.2120   25.9034  -70.5655 H         1 UNK         0.0900 
     70 H70       -83.5163   28.3387  -72.0977 H         1 UNK         0.2959 
     71 H71       -84.4512   28.1248  -74.7901 H         1 UNK         0.1079 
     72 H72       -83.3438   30.1362  -74.2729 H         1 UNK         0.0837 
     73 H73       -82.2517   29.3138  -75.3371 H         1 UNK         0.0837 
     74 H74       -80.1046   27.9383  -74.4068 H         1 UNK         0.0685 
     75 H75       -79.7234   29.6027  -74.7877 H         1 UNK         0.0685 
     76 H76       -79.4292   27.0511  -72.0645 H         1 UNK         0.1434 
     77 H77       -75.6803   28.5783  -70.6410 H         1 UNK         0.1329 
     78 H78       -77.7583   30.5872  -73.8106 H         1 UNK         0.1335 
     79 H79       -75.8187   31.6069  -72.8561 H         1 UNK         0.0680 
     80 H80       -75.2734   31.0871  -71.2769 H         1 UNK         0.0680 
     81 H81       -72.9655   32.0666  -72.1541 H         1 UNK         0.1032 
     82 H82       -73.4709   32.2627  -73.8042 H         1 UNK         0.1032 
     83 H83       -71.1080   32.3081  -73.8625 H         1 UNK         0.0461 
     84 H84       -69.8307   29.2308  -73.6788 H         1 UNK         0.3453 
     85 H85       -69.2283   29.3357  -72.0440 H         1 UNK         0.3453 
     86 H86       -72.2791   29.8811  -74.9637 H         1 UNK         0.2984 
     87 H87       -71.6583   29.9070  -77.5611 H         1 UNK         0.0554 
     88 H88       -69.7586   28.7620  -78.7252 H         1 UNK         0.0847 
     89 H89       -68.6741   29.2168  -77.4118 H         1 UNK         0.0847 
     90 H90       -69.4093   30.4551  -78.4169 H         1 UNK         0.0847 
     91 H91       -72.0774   27.9180  -76.7040 H         1 UNK         0.3141 
     92 H92       -70.2068   25.3543  -75.4241 H         1 UNK         0.0743 
     93 H93       -71.9978   26.8479  -73.4296 H         1 UNK         0.0784 
     94 H94       -71.6413   25.1214  -73.3772 H         1 UNK         0.0784 
     95 H95       -70.3572   26.2936  -73.1318 H         1 UNK         0.0784 
     96 H96       -73.0606   25.7801  -75.4158 H         1 UNK         0.3213 
     97 H97       -73.5938   25.8487  -78.8313 H         1 UNK         0.0855 
     98 H98       -74.0134   23.1903  -77.3620 H         1 UNK         0.0814 
     99 H99       -73.1293   23.3857  -78.8680 H         1 UNK         0.0814 
    100 H100      -74.8521   23.7114  -78.8237 H         1 UNK         0.0814 
    101 H101      -75.5281   25.1787  -76.9531 H         1 UNK         0.3105 
    102 H102      -75.7818   28.1193  -75.0152 H         1 UNK         0.0547 
    103 H103      -77.0492   28.7927  -77.0001 H         1 UNK         0.0837 
    104 H104      -77.5327   27.1374  -77.3300 H         1 UNK         0.0837 
    105 H105      -78.1539   27.9711  -75.9097 H         1 UNK         0.0837 
    106 H106      -77.4451   25.8742  -74.9861 H         1 UNK         0.3020 
    107 H107      -75.4030   23.6626  -73.0129 H         1 UNK         0.1245 
    108 H108      -77.9927   25.1897  -72.4955 H         1 UNK         0.0781 
    109 H109      -77.6454   23.6183  -71.8467 H         1 UNK         0.0781 
    110 H110      -78.4400   26.1160  -70.0541 H         1 UNK         0.0836 
    111 H111      -77.1260   26.9525  -69.2702 H         1 UNK         0.0836 
    112 H112      -77.9149   23.6875  -74.5627 H         1 UNK         0.3022 
    113 H113      -76.6107   21.7352  -77.1545 H         1 UNK         0.0747 
    114 H114      -78.2987   19.9975  -76.5915 H         1 UNK         0.0793 
    115 H115      -76.9100   19.8615  -75.5271 H         1 UNK         0.0793 
    116 H116      -78.3945   20.5920  -74.9327 H         1 UNK         0.0793 
    117 H117      -79.3037   22.3706  -76.4122 H         1 UNK         0.3047 
    118 H118      -79.3553   25.7037  -77.6323 H         1 UNK         0.0822 
    119 H119      -81.1407   24.8183  -79.0950 H         1 UNK         0.0807 
    120 H120      -80.5792   23.1655  -78.8394 H         1 UNK         0.0807 
    121 H121      -79.5723   24.3190  -79.7039 H         1 UNK         0.0807 
    122 H122      -81.4946   24.1854  -76.7034 H         1 UNK         0.2946 
    123 H123      -82.2501   24.0263  -74.6504 H         1 UNK         0.1144 
    124 H124      -81.8667   23.7847  -72.2405 H         1 UNK         0.0793 
    125 H125      -80.3631   24.6971  -72.3310 H         1 UNK         0.0793 
    126 H126      -80.4849   23.1178  -73.0932 H         1 UNK         0.0793 
    127 H127      -82.1643   26.2516  -72.9092 H         1 UNK         0.2896 
@<TRIPOS>BOND
     1    1    2 1    
     2    1   67 1    
     3    1   68 1    
     4    1   69 1    
     5    2    3 2    
     6    2    4 am   BACKBONE|DICT|INTERRES
     7    4    5 1    
     8    4   70 1    
     9    5    6 1    
    10    5   65 1    
    11    5   71 1    
    12    6    7 1    
    13    6   72 1    
    14    6   73 1    
    15    7    8 1    
    16    8    9 1    
    17    8   74 1    
    18    8   75 1    
    19    9   10 ar   
    20    9   14 ar   
    21   10   11 ar   
    22   10   76 1    
    23   11   12 ar   
    24   11   48 1    
    25   12   13 ar   
    26   12   77 1    
    27   13   14 ar   
    28   13   15 1    
    29   14   78 1    
    30   15   16 1    
    31   15   79 1    
    32   15   80 1    
    33   16   17 1    
    34   17   18 1    
    35   17   81 1    
    36   17   82 1    
    37   18   19 1    
    38   18   22 1    
    39   18   83 1    
    40   19   20 am   BACKBONE|DICT|INTERRES
    41   19   21 2    
    42   20   84 1    
    43   20   85 1    
    44   22   23 am   BACKBONE|DICT|INTERRES
    45   22   86 1    
    46   23   24 2    
    47   23   25 1    
    48   25   26 1    
    49   25   27 1    
    50   25   87 1    
    51   26   88 1    
    52   26   89 1    
    53   26   90 1    
    54   27   28 am   BACKBONE|DICT|INTERRES
    55   27   91 1    
    56   28   29 2    
    57   28   30 1    
    58   30   31 1    
    59   30   32 1    
    60   30   92 1    
    61   31   93 1    
    62   31   94 1    
    63   31   95 1    
    64   32   33 am   BACKBONE|DICT|INTERRES
    65   32   96 1    
    66   33   34 2    
    67   33   35 1    
    68   35   36 1    
    69   35   37 1    
    70   35   97 1    
    71   36   98 1    
    72   36   99 1    
    73   36  100 1    
    74   37   38 am   BACKBONE|DICT|INTERRES
    75   37  101 1    
    76   38   39 2    
    77   38   40 1    
    78   40   41 1    
    79   40   42 1    
    80   40  102 1    
    81   41  103 1    
    82   41  104 1    
    83   41  105 1    
    84   42   43 am   BACKBONE|DICT|INTERRES
    85   42  106 1    
    86   43   44 2    
    87   43   45 1    
    88   45   46 1    
    89   45   49 1    
    90   45  107 1    
    91   46   47 1    
    92   46  108 1    
    93   46  109 1    
    94   47   48 1    
    95   48  110 1    
    96   48  111 1    
    97   49   50 am   BACKBONE|DICT|INTERRES
    98   49  112 1    
    99   50   51 2    
   100   50   52 1    
   101   52   53 1    
   102   52   54 1    
   103   52  113 1    
   104   53  114 1    
   105   53  115 1    
   106   53  116 1    
   107   54   55 am   BACKBONE|DICT|INTERRES
   108   54  117 1    
   109   55   56 2    
   110   55   57 1    
   111   57   58 1    
   112   57   59 1    
   113   57  118 1    
   114   58  119 1    
   115   58  120 1    
   116   58  121 1    
   117   59   60 am   BACKBONE|DICT|INTERRES
   118   59  122 1    
   119   60   61 2    
   120   60   62 1    
   121   62   63 1    
   122   62   64 1    
   123   62  123 1    
   124   63  124 1    
   125   63  125 1    
   126   63  126 1    
   127   64   65 am   BACKBONE|DICT|INTERRES
   128   64  127 1    
   129   65   66 2    
@<TRIPOS>SUBSTRUCTURE
     1 UNK         1 GROUP             0       ****    0 ROOT    
