@<TRIPOS>MOLECULE
3R135
127   129    1
SMALL
USER_CHARGES


@<TRIPOS>ATOM
      1 CA        -80.6585   25.3058  -69.9657 C.3       0 UNK        -0.1998 
      2 C         -81.7829   25.8082  -70.8565 C.2       0 UNK         0.4909 
      3 O         -82.9008   25.2971  -70.7822 O.2       0 UNK        -0.5240 
      4 N         -81.4930   26.8074  -71.7013 N.am      1 UNK        -0.4739 
      5 CA        -82.4501   27.3866  -72.6563 C.3       1 UNK         0.0864 
      6 C6        -82.0050   28.7792  -73.1664 C.3       11 UNK        -0.0881 
      7 S7        -81.8649   29.9849  -71.8038 S.3       11 UNK        -0.2682 
      8 C8        -80.4060   30.9615  -72.3069 C.3       11 UNK         0.0289 
      9 C9        -79.0902   30.1845  -72.3479 C.ar      11 UNK        -0.0687 
     10 C10       -78.8108   29.1521  -71.4444 C.ar      11 UNK        -0.0823 
     11 C11       -77.5940   28.4642  -71.4934 C.ar      11 UNK        -0.0830 
     12 C12       -76.6299   28.8486  -72.4321 C.ar      11 UNK        -0.1021 
     13 C13       -76.8846   29.8917  -73.3258 C.ar      11 UNK        -0.0753 
     14 C14       -78.1190   30.5452  -73.2862 C.ar      11 UNK        -0.0933 
     15 C15       -75.8309   30.3234  -74.3337 C.3       11 UNK         0.0166 
     16 S16       -74.9298   31.7989  -73.7661 S.3       11 UNK        -0.2615 
     17 C17       -73.7048   31.0688  -72.6247 C.3       11 UNK        -0.0865 
     18 CA        -72.2658   31.1264  -73.1975 C.3       10 UNK         0.0862 
     19 C         -71.2397   30.5953  -72.1627 C.2       10 UNK         0.5551 
     20 N         -70.5337   31.4811  -71.4738 N.am      10 UNK        -0.7319 
     21 O         -71.1168   29.3913  -71.9479 O.2       10 UNK        -0.5018 
     22 N         -72.1647   30.4049  -74.4721 N.am      10 UNK        -0.4509 
     23 C         -71.1916   30.5737  -75.3742 C.2       10 UNK         0.4899 
     24 O         -70.2823   31.3976  -75.2597 O.2       10 UNK        -0.4839 
     25 CA        -71.2713   29.6674  -76.6177 C.3       9 UNK         0.0222 
     26 CB        -70.0340   29.7772  -77.5345 C.3       9 UNK        -0.1966 
     27 N         -71.5540   28.2687  -76.2731 N.am      9 UNK        -0.4218 
     28 C         -70.7925   27.4443  -75.5315 C.2       9 UNK         0.5020 
     29 O         -69.7002   27.7584  -75.0566 O.2       9 UNK        -0.5274 
     30 CA        -71.3279   26.0241  -75.2609 C.3       8 UNK         0.0270 
     31 CB        -71.7418   25.8787  -73.7866 C.3       8 UNK        -0.1976 
     32 N         -72.4525   25.6557  -76.1270 N.am      8 UNK        -0.4313 
     33 C         -72.3227   25.3291  -77.4227 C.2       8 UNK         0.5041 
     34 O         -71.2317   25.2179  -77.9837 O.2       8 UNK        -0.5577 
     35 CA        -73.6021   25.1056  -78.2534 C.3       7 UNK         0.0284 
     36 CB        -73.8154   23.6036  -78.5046 C.3       7 UNK        -0.1958 
     37 N         -74.8264   25.6727  -77.6799 N.am      7 UNK        -0.4454 
     38 C         -75.0437   26.9662  -77.4007 C.2       7 UNK         0.5089 
     39 O         -74.2234   27.8616  -77.6064 O.2       7 UNK        -0.5125 
     40 CA        -76.3688   27.2985  -76.6893 C.3       6 UNK         0.0408 
     41 CB        -77.5066   27.4633  -77.7058 C.3       6 UNK        -0.1791 
     42 N         -76.7393   26.3073  -75.6702 N.am      6 UNK        -0.4762 
     43 C         -75.9702   25.9793  -74.6182 C.2       6 UNK         0.5007 
     44 O         -74.8771   26.4986  -74.3942 O.2       6 UNK        -0.5032 
     45 CA        -76.4614   24.8410  -73.7062 C.3       5 UNK         0.0783 
     46 C46       -77.3812   25.3445  -72.5637 C.3       11 UNK        -0.0857 
     47 S47       -76.3857   25.9251  -71.1449 S.3       11 UNK        -0.2512 
     48 C48       -77.3326   27.3429  -70.4912 C.3       11 UNK         0.0225 
     49 N         -77.0774   23.7776  -74.5044 N.am      5 UNK        -0.4615 
     50 C         -76.3823   22.7797  -75.0711 C.2       4 UNK         0.5053 
     51 O         -75.1731   22.6127  -74.9119 O.2       4 UNK        -0.5105 
     52 CA        -77.1506   21.8035  -75.9803 C.3       4 UNK         0.0263 
     53 CB        -77.6831   20.6159  -75.1628 C.3       4 UNK        -0.1981 
     54 N         -78.2579   22.4246  -76.7089 N.am      4 UNK        -0.4224 
     55 C         -78.1246   23.3954  -77.6235 C.2       3 UNK         0.4895 
     56 O         -77.0428   23.8574  -77.9823 O.2       3 UNK        -0.5091 
     57 CA        -79.4220   23.9884  -78.1993 C.3       3 UNK         0.0250 
     58 CB        -79.8593   23.2045  -79.4467 C.3       3 UNK        -0.1996 
     59 N         -80.5360   24.0537  -77.2460 N.am      3 UNK        -0.4254 
     60 C         -80.5056   24.6457  -76.0435 C.2       2 UNK         0.5004 
     61 O         -79.4982   25.1644  -75.5485 O.2       2 UNK        -0.5226 
     62 CA        -81.8113   24.5973  -75.2446 C.3       2 UNK         0.0269 
     63 CB        -82.0153   23.2046  -74.6225 C.3       2 UNK        -0.1926 
     64 N         -81.7543   25.5860  -74.1739 N.am      2 UNK        -0.4687 
     65 C         -82.7309   26.4376  -73.8399 C.2       1 UNK         0.5165 
     66 O         -83.8208   26.4876  -74.4123 O.2       1 UNK        -0.5079 
     67 H67       -80.9347   24.3631  -69.4935 H         1 UNK         0.0900 
     68 H68       -79.7516   25.1341  -70.5434 H         1 UNK         0.0900 
     69 H69       -80.4450   26.0285  -69.1787 H         1 UNK         0.0900 
     70 H70       -80.5668   27.2072  -71.7130 H         1 UNK         0.2959 
     71 H71       -83.4022   27.5147  -72.1356 H         1 UNK         0.1079 
     72 H72       -82.7268   29.1759  -73.8834 H         1 UNK         0.0837 
     73 H73       -81.0552   28.7049  -73.6995 H         1 UNK         0.0837 
     74 H74       -80.6141   31.4041  -73.2824 H         1 UNK         0.0685 
     75 H75       -80.2907   31.7924  -71.6100 H         1 UNK         0.0685 
     76 H76       -79.5403   28.8901  -70.6909 H         1 UNK         0.1434 
     77 H77       -75.6773   28.3382  -72.4657 H         1 UNK         0.1329 
     78 H78       -78.3126   31.3547  -73.9770 H         1 UNK         0.1335 
     79 H79       -76.3114   30.5526  -75.2860 H         1 UNK         0.0680 
     80 H80       -75.1272   29.5135  -74.5317 H         1 UNK         0.0680 
     81 H81       -73.7594   31.6247  -71.6867 H         1 UNK         0.1032 
     82 H82       -73.9804   30.0426  -72.3781 H         1 UNK         0.1032 
     83 H83       -72.0357   32.1756  -73.3966 H         1 UNK         0.0461 
     84 H84       -70.6350   32.4706  -71.6390 H         1 UNK         0.3453 
     85 H85       -69.8748   31.1535  -70.7847 H         1 UNK         0.3453 
     86 H86       -72.8491   29.6820  -74.6299 H         1 UNK         0.2984 
     87 H87       -72.1323   30.0147  -77.1909 H         1 UNK         0.0554 
     88 H88       -69.9045   30.7990  -77.8932 H         1 UNK         0.0847 
     89 H89       -70.1319   29.1367  -78.4110 H         1 UNK         0.0847 
     90 H90       -69.1163   29.4982  -77.0159 H         1 UNK         0.0847 
     91 H91       -72.4370   27.9133  -76.6282 H         1 UNK         0.3141 
     92 H92       -70.5102   25.3250  -75.4490 H         1 UNK         0.0743 
     93 H93       -70.8772   25.9894  -73.1309 H         1 UNK         0.0784 
     94 H94       -72.4629   26.6410  -73.4904 H         1 UNK         0.0784 
     95 H95       -72.1798   24.9009  -73.5854 H         1 UNK         0.0784 
     96 H96       -73.3805   25.7511  -75.7288 H         1 UNK         0.3213 
     97 H97       -73.4419   25.5936  -79.2169 H         1 UNK         0.0855 
     98 H98       -74.0480   23.0712  -77.5813 H         1 UNK         0.0814 
     99 H99       -72.9229   23.1442  -78.9319 H         1 UNK         0.0814 
    100 H100      -74.6317   23.4307  -79.2060 H         1 UNK         0.0814 
    101 H101      -75.5928   25.0201  -77.5299 H         1 UNK         0.3105 
    102 H102      -76.2419   28.2512  -76.1772 H         1 UNK         0.0547 
    103 H103      -78.4651   27.6315  -77.2144 H         1 UNK         0.0837 
    104 H104      -77.3196   28.3180  -78.3569 H         1 UNK         0.0837 
    105 H105      -77.6005   26.5883  -78.3470 H         1 UNK         0.0837 
    106 H106      -77.6427   25.8540  -75.7717 H         1 UNK         0.3020 
    107 H107      -75.5666   24.4189  -73.2412 H         1 UNK         0.1245 
    108 H108      -78.0052   24.5277  -72.1986 H         1 UNK         0.0781 
    109 H109      -78.0694   26.1182  -72.9094 H         1 UNK         0.0781 
    110 H110      -76.7820   27.7616  -69.6479 H         1 UNK         0.0836 
    111 H111      -78.2707   26.9696  -70.0824 H         1 UNK         0.0836 
    112 H112      -78.0553   23.8985  -74.7396 H         1 UNK         0.3022 
    113 H113      -76.4429   21.4212  -76.7193 H         1 UNK         0.0747 
    114 H114      -78.1508   19.8692  -75.8049 H         1 UNK         0.0793 
    115 H115      -76.8740   20.1177  -74.6267 H         1 UNK         0.0793 
    116 H116      -78.4188   20.9319  -74.4219 H         1 UNK         0.0793 
    117 H117      -79.1893   22.1110  -76.4793 H         1 UNK         0.3047 
    118 H118      -79.2074   25.0120  -78.5062 H         1 UNK         0.0822 
    119 H119      -79.0542   23.1604  -80.1819 H         1 UNK         0.0807 
    120 H120      -80.7128   23.6761  -79.9343 H         1 UNK         0.0807 
    121 H121      -80.1353   22.1775  -79.2040 H         1 UNK         0.0807 
    122 H122      -81.4047   23.6398  -77.5538 H         1 UNK         0.2946 
    123 H123      -82.6360   24.8213  -75.9254 H         1 UNK         0.1144 
    124 H124      -82.9349   23.1661  -74.0380 H         1 UNK         0.0793 
    125 H125      -81.1909   22.9325  -73.9617 H         1 UNK         0.0793 
    126 H126      -82.0900   22.4329  -75.3896 H         1 UNK         0.0793 
    127 H127      -80.8601   25.6632  -73.7095 H         1 UNK         0.2896 
@<TRIPOS>BOND
     1    1    2 1    
     2    1   67 1    
     3    1   68 1    
     4    1   69 1    
     5    2    3 2    
     6    2    4 am   BACKBONE|DICT|INTERRES
     7    4    5 1    
     8    4   70 1    
     9    5    6 1    
    10    5   65 1    
    11    5   71 1    
    12    6    7 1    
    13    6   72 1    
    14    6   73 1    
    15    7    8 1    
    16    8    9 1    
    17    8   74 1    
    18    8   75 1    
    19    9   10 ar   
    20    9   14 ar   
    21   10   11 ar   
    22   10   76 1    
    23   11   12 ar   
    24   11   48 1    
    25   12   13 ar   
    26   12   77 1    
    27   13   14 ar   
    28   13   15 1    
    29   14   78 1    
    30   15   16 1    
    31   15   79 1    
    32   15   80 1    
    33   16   17 1    
    34   17   18 1    
    35   17   81 1    
    36   17   82 1    
    37   18   19 1    
    38   18   22 1    
    39   18   83 1    
    40   19   20 am   BACKBONE|DICT|INTERRES
    41   19   21 2    
    42   20   84 1    
    43   20   85 1    
    44   22   23 am   BACKBONE|DICT|INTERRES
    45   22   86 1    
    46   23   24 2    
    47   23   25 1    
    48   25   26 1    
    49   25   27 1    
    50   25   87 1    
    51   26   88 1    
    52   26   89 1    
    53   26   90 1    
    54   27   28 am   BACKBONE|DICT|INTERRES
    55   27   91 1    
    56   28   29 2    
    57   28   30 1    
    58   30   31 1    
    59   30   32 1    
    60   30   92 1    
    61   31   93 1    
    62   31   94 1    
    63   31   95 1    
    64   32   33 am   BACKBONE|DICT|INTERRES
    65   32   96 1    
    66   33   34 2    
    67   33   35 1    
    68   35   36 1    
    69   35   37 1    
    70   35   97 1    
    71   36   98 1    
    72   36   99 1    
    73   36  100 1    
    74   37   38 am   BACKBONE|DICT|INTERRES
    75   37  101 1    
    76   38   39 2    
    77   38   40 1    
    78   40   41 1    
    79   40   42 1    
    80   40  102 1    
    81   41  103 1    
    82   41  104 1    
    83   41  105 1    
    84   42   43 am   BACKBONE|DICT|INTERRES
    85   42  106 1    
    86   43   44 2    
    87   43   45 1    
    88   45   46 1    
    89   45   49 1    
    90   45  107 1    
    91   46   47 1    
    92   46  108 1    
    93   46  109 1    
    94   47   48 1    
    95   48  110 1    
    96   48  111 1    
    97   49   50 am   BACKBONE|DICT|INTERRES
    98   49  112 1    
    99   50   51 2    
   100   50   52 1    
   101   52   53 1    
   102   52   54 1    
   103   52  113 1    
   104   53  114 1    
   105   53  115 1    
   106   53  116 1    
   107   54   55 am   BACKBONE|DICT|INTERRES
   108   54  117 1    
   109   55   56 2    
   110   55   57 1    
   111   57   58 1    
   112   57   59 1    
   113   57  118 1    
   114   58  119 1    
   115   58  120 1    
   116   58  121 1    
   117   59   60 am   BACKBONE|DICT|INTERRES
   118   59  122 1    
   119   60   61 2    
   120   60   62 1    
   121   62   63 1    
   122   62   64 1    
   123   62  123 1    
   124   63  124 1    
   125   63  125 1    
   126   63  126 1    
   127   64   65 am   BACKBONE|DICT|INTERRES
   128   64  127 1    
   129   65   66 2    
@<TRIPOS>SUBSTRUCTURE
     1 UNK         1 GROUP             0       ****    0 ROOT    
