@<TRIPOS>MOLECULE
3R135
127   129    1
SMALL
USER_CHARGES


@<TRIPOS>ATOM
      1 CA        -76.3791   26.8915  -72.6276 C.3       0 UNK        -0.1998 
      2 C         -77.6365   26.1429  -72.2294 C.2       0 UNK         0.4909 
      3 O         -78.3927   25.7127  -73.1015 O.2       0 UNK        -0.5240 
      4 N         -77.8198   25.9737  -70.9112 N.am      1 UNK        -0.4739 
      5 CA        -78.9856   25.4709  -70.1586 C.3       1 UNK         0.0864 
      6 C6        -80.1220   26.5251  -70.0403 C.3       11 UNK        -0.0881 
      7 S7        -81.1796   26.7306  -71.5183 S.3       11 UNK        -0.2682 
      8 C8        -81.4075   28.5337  -71.5595 C.3       11 UNK         0.0289 
      9 C9        -80.3978   29.2138  -72.4711 C.ar      11 UNK        -0.0687 
     10 C10       -80.6692   29.3229  -73.8354 C.ar      11 UNK        -0.0823 
     11 C11       -79.7906   29.9993  -74.6831 C.ar      11 UNK        -0.0830 
     12 C12       -78.6265   30.5684  -74.1575 C.ar      11 UNK        -0.1021 
     13 C13       -78.3290   30.4568  -72.7902 C.ar      11 UNK        -0.0753 
     14 C14       -79.2234   29.7723  -71.9577 C.ar      11 UNK        -0.0933 
     15 C15       -77.0906   31.0890  -72.1457 C.3       11 UNK         0.0166 
     16 S16       -75.8988   31.8841  -73.2811 S.3       11 UNK        -0.2615 
     17 C17       -75.0353   30.4380  -73.9806 C.3       11 UNK        -0.0865 
     18 CA        -73.5865   30.2899  -73.4513 C.3       10 UNK         0.0862 
     19 C         -73.5441   29.7344  -72.0008 C.2       10 UNK         0.5551 
     20 N         -73.4083   30.5992  -71.0051 N.am      10 UNK        -0.7319 
     21 O         -73.6739   28.5349  -71.7715 O.2       10 UNK        -0.5018 
     22 N         -72.7742   29.4829  -74.3722 N.am      10 UNK        -0.4509 
     23 C         -71.4337   29.4675  -74.3705 C.2       10 UNK         0.4899 
     24 O         -70.7470   30.1746  -73.6306 O.2       10 UNK        -0.4839 
     25 CA        -70.7452   28.5351  -75.3874 C.3       9 UNK         0.0222 
     26 CB        -69.2448   28.3191  -75.0934 C.3       9 UNK        -0.1966 
     27 N         -71.4349   27.2530  -75.5668 N.am      9 UNK        -0.4218 
     28 C         -71.6492   26.2998  -74.6443 C.2       9 UNK         0.5020 
     29 O         -71.2357   26.3659  -73.4863 O.2       9 UNK        -0.5274 
     30 CA        -72.4531   25.0568  -75.0782 C.3       8 UNK         0.0270 
     31 CB        -73.5865   24.7457  -74.0872 C.3       8 UNK        -0.1976 
     32 N         -73.0295   25.2155  -76.4159 N.am      8 UNK        -0.4313 
     33 C         -72.5521   24.6504  -77.5338 C.2       8 UNK         0.5041 
     34 O         -71.6375   23.8262  -77.5490 O.2       8 UNK        -0.5577 
     35 CA        -73.1665   25.1083  -78.8711 C.3       7 UNK         0.0284 
     36 CB        -74.1612   24.0661  -79.4063 C.3       7 UNK        -0.1958 
     37 N         -73.8091   26.4273  -78.7937 N.am      7 UNK        -0.4454 
     38 C         -73.1303   27.5731  -78.6208 C.2       7 UNK         0.5089 
     39 O         -71.9040   27.6224  -78.5337 O.2       7 UNK        -0.5125 
     40 CA        -73.9292   28.8774  -78.4521 C.3       6 UNK         0.0408 
     41 CB        -73.9842   29.6458  -79.7812 C.3       6 UNK        -0.1791 
     42 N         -75.2896   28.6898  -77.9454 N.am      6 UNK        -0.4762 
     43 C         -75.6153   28.1740  -76.7516 C.2       6 UNK         0.5007 
     44 O         -74.7768   27.7894  -75.9314 O.2       6 UNK        -0.5032 
     45 CA        -77.1214   28.0337  -76.4257 C.3       5 UNK         0.0783 
     46 C46       -78.0514   28.7276  -77.4627 C.3       11 UNK        -0.0857 
     47 S47       -79.8246   28.5869  -77.0604 S.3       11 UNK        -0.2512 
     48 C48       -80.1327   30.1370  -76.1585 C.3       11 UNK         0.0225 
     49 N         -77.4720   26.6296  -76.1931 N.am      5 UNK        -0.4615 
     50 C         -77.2879   25.6112  -77.0449 C.2       4 UNK         0.5053 
     51 O         -76.7651   25.7273  -78.1541 O.2       4 UNK        -0.5105 
     52 CA        -77.7574   24.2276  -76.5777 C.3       4 UNK         0.0263 
     53 CB        -76.6059   23.4789  -75.8887 C.3       4 UNK        -0.1981 
     54 N         -78.8727   24.3238  -75.6383 N.am      4 UNK        -0.4224 
     55 C         -80.1716   24.2425  -75.9539 C.2       3 UNK         0.4895 
     56 O         -80.5947   24.0802  -77.0998 O.2       3 UNK        -0.5091 
     57 CA        -81.1503   24.3465  -74.7670 C.3       3 UNK         0.0250 
     58 CB        -82.5589   23.7964  -75.0756 C.3       3 UNK        -0.1996 
     59 N         -80.5801   23.7526  -73.5503 N.am      3 UNK        -0.4254 
     60 C         -80.2768   22.4627  -73.3208 C.2       2 UNK         0.5004 
     61 O         -80.6311   21.5342  -74.0479 O.2       2 UNK        -0.5226 
     62 CA        -79.3731   22.1543  -72.1060 C.3       2 UNK         0.0269 
     63 CB        -78.1638   21.2974  -72.5222 C.3       2 UNK        -0.1926 
     64 N         -78.8726   23.3747  -71.4673 N.am      2 UNK        -0.4687 
     65 C         -79.5114   24.0577  -70.5122 C.2       1 UNK         0.5165 
     66 O         -80.4961   23.6140  -69.9193 O.2       1 UNK        -0.5079 
     67 H67       -75.4994   26.4495  -72.1605 H         1 UNK         0.0900 
     68 H68       -76.4515   27.9296  -72.3080 H         1 UNK         0.0900 
     69 H69       -76.2351   26.8766  -73.7054 H         1 UNK         0.0900 
     70 H70       -77.0835   26.3161  -70.3091 H         1 UNK         0.2959 
     71 H71       -78.5961   25.3424  -69.1472 H         1 UNK         0.1079 
     72 H72       -80.7786   26.2650  -69.2080 H         1 UNK         0.0837 
     73 H73       -79.6867   27.4875  -69.7686 H         1 UNK         0.0837 
     74 H74       -82.4163   28.7432  -71.9183 H         1 UNK         0.0685 
     75 H75       -81.3613   28.9483  -70.5514 H         1 UNK         0.0685 
     76 H76       -81.5753   28.8903  -74.2378 H         1 UNK         0.1434 
     77 H77       -77.9674   31.1064  -74.8228 H         1 UNK         0.1329 
     78 H78       -79.0161   29.6936  -70.8993 H         1 UNK         0.1335 
     79 H79       -77.4303   31.8502  -71.4421 H         1 UNK         0.0680 
     80 H80       -76.5662   30.3394  -71.5514 H         1 UNK         0.0680 
     81 H81       -75.0152   30.5927  -75.0602 H         1 UNK         0.1032 
     82 H82       -75.6118   29.5269  -73.8208 H         1 UNK         0.1032 
     83 H83       -73.1400   31.2870  -73.4440 H         1 UNK         0.0461 
     84 H84       -73.3901   30.2574  -70.0574 H         1 UNK         0.3453 
     85 H85       -73.3227   31.5874  -71.1848 H         1 UNK         0.3453 
     86 H86       -73.2785   28.8287  -74.9600 H         1 UNK         0.2984 
     87 H87       -70.8144   29.0460  -76.3486 H         1 UNK         0.0554 
     88 H88       -68.7823   27.6755  -75.8416 H         1 UNK         0.0847 
     89 H89       -69.0840   27.8661  -74.1146 H         1 UNK         0.0847 
     90 H90       -68.7034   29.2658  -75.1046 H         1 UNK         0.0847 
     91 H91       -71.7717   27.0865  -76.5078 H         1 UNK         0.3141 
     92 H92       -71.7556   24.2170  -75.0614 H         1 UNK         0.0743 
     93 H93       -74.3580   25.5130  -74.1181 H         1 UNK         0.0784 
     94 H94       -74.0494   23.7860  -74.3140 H         1 UNK         0.0784 
     95 H95       -73.2199   24.6870  -73.0616 H         1 UNK         0.0784 
     96 H96       -73.7739   25.8991  -76.4964 H         1 UNK         0.3213 
     97 H97       -72.3471   25.1824  -79.5898 H         1 UNK         0.0855 
     98 H98       -74.9894   23.9008  -78.7192 H         1 UNK         0.0814 
     99 H99       -73.6703   23.1036  -79.5559 H         1 UNK         0.0814 
    100 H100      -74.5776   24.3693  -80.3669 H         1 UNK         0.0814 
    101 H101      -74.8237   26.4462  -78.8101 H         1 UNK         0.3105 
    102 H102      -73.3928   29.4927  -77.7264 H         1 UNK         0.0547 
    103 H103      -72.9807   29.8273  -80.1689 H         1 UNK         0.0837 
    104 H104      -74.5329   29.0940  -80.5454 H         1 UNK         0.0837 
    105 H105      -74.4612   30.6185  -79.6595 H         1 UNK         0.0837 
    106 H106      -76.0362   28.9482  -78.5744 H         1 UNK         0.3020 
    107 H107      -77.2598   28.5364  -75.4690 H         1 UNK         0.1245 
    108 H108      -77.7980   29.7844  -77.5646 H         1 UNK         0.0781 
    109 H109      -77.9227   28.2836  -78.4516 H         1 UNK         0.0781 
    110 H110      -79.5853   30.9620  -76.6164 H         1 UNK         0.0836 
    111 H111      -81.1893   30.3908  -76.2570 H         1 UNK         0.0836 
    112 H112      -77.9140   26.4333  -75.3052 H         1 UNK         0.3022 
    113 H113      -78.0603   23.6613  -77.4610 H         1 UNK         0.0747 
    114 H114      -76.8851   22.4489  -75.6668 H         1 UNK         0.0793 
    115 H115      -75.7167   23.4437  -76.5184 H         1 UNK         0.0793 
    116 H116      -76.3257   23.9579  -74.9505 H         1 UNK         0.0793 
    117 H117      -78.6421   24.5309  -74.6713 H         1 UNK         0.3047 
    118 H118      -81.2532   25.4127  -74.5576 H         1 UNK         0.0822 
    119 H119      -83.2121   23.8700  -74.2062 H         1 UNK         0.0807 
    120 H120      -82.5307   22.7528  -75.3893 H         1 UNK         0.0807 
    121 H121      -83.0274   24.3622  -75.8818 H         1 UNK         0.0807 
    122 H122      -80.2007   24.4314  -72.8999 H         1 UNK         0.2946 
    123 H123      -79.9726   21.5816  -71.3946 H         1 UNK         0.1144 
    124 H124      -78.4833   20.3492  -72.9568 H         1 UNK         0.0793 
    125 H125      -77.5328   21.0603  -71.6655 H         1 UNK         0.0793 
    126 H126      -77.5462   21.8048  -73.2640 H         1 UNK         0.0793 
    127 H127      -78.1011   23.8427  -71.9241 H         1 UNK         0.2896 
@<TRIPOS>BOND
     1    1    2 1    
     2    1   67 1    
     3    1   68 1    
     4    1   69 1    
     5    2    3 2    
     6    2    4 am   BACKBONE|DICT|INTERRES
     7    4    5 1    
     8    4   70 1    
     9    5    6 1    
    10    5   65 1    
    11    5   71 1    
    12    6    7 1    
    13    6   72 1    
    14    6   73 1    
    15    7    8 1    
    16    8    9 1    
    17    8   74 1    
    18    8   75 1    
    19    9   10 ar   
    20    9   14 ar   
    21   10   11 ar   
    22   10   76 1    
    23   11   12 ar   
    24   11   48 1    
    25   12   13 ar   
    26   12   77 1    
    27   13   14 ar   
    28   13   15 1    
    29   14   78 1    
    30   15   16 1    
    31   15   79 1    
    32   15   80 1    
    33   16   17 1    
    34   17   18 1    
    35   17   81 1    
    36   17   82 1    
    37   18   19 1    
    38   18   22 1    
    39   18   83 1    
    40   19   20 am   BACKBONE|DICT|INTERRES
    41   19   21 2    
    42   20   84 1    
    43   20   85 1    
    44   22   23 am   BACKBONE|DICT|INTERRES
    45   22   86 1    
    46   23   24 2    
    47   23   25 1    
    48   25   26 1    
    49   25   27 1    
    50   25   87 1    
    51   26   88 1    
    52   26   89 1    
    53   26   90 1    
    54   27   28 am   BACKBONE|DICT|INTERRES
    55   27   91 1    
    56   28   29 2    
    57   28   30 1    
    58   30   31 1    
    59   30   32 1    
    60   30   92 1    
    61   31   93 1    
    62   31   94 1    
    63   31   95 1    
    64   32   33 am   BACKBONE|DICT|INTERRES
    65   32   96 1    
    66   33   34 2    
    67   33   35 1    
    68   35   36 1    
    69   35   37 1    
    70   35   97 1    
    71   36   98 1    
    72   36   99 1    
    73   36  100 1    
    74   37   38 am   BACKBONE|DICT|INTERRES
    75   37  101 1    
    76   38   39 2    
    77   38   40 1    
    78   40   41 1    
    79   40   42 1    
    80   40  102 1    
    81   41  103 1    
    82   41  104 1    
    83   41  105 1    
    84   42   43 am   BACKBONE|DICT|INTERRES
    85   42  106 1    
    86   43   44 2    
    87   43   45 1    
    88   45   46 1    
    89   45   49 1    
    90   45  107 1    
    91   46   47 1    
    92   46  108 1    
    93   46  109 1    
    94   47   48 1    
    95   48  110 1    
    96   48  111 1    
    97   49   50 am   BACKBONE|DICT|INTERRES
    98   49  112 1    
    99   50   51 2    
   100   50   52 1    
   101   52   53 1    
   102   52   54 1    
   103   52  113 1    
   104   53  114 1    
   105   53  115 1    
   106   53  116 1    
   107   54   55 am   BACKBONE|DICT|INTERRES
   108   54  117 1    
   109   55   56 2    
   110   55   57 1    
   111   57   58 1    
   112   57   59 1    
   113   57  118 1    
   114   58  119 1    
   115   58  120 1    
   116   58  121 1    
   117   59   60 am   BACKBONE|DICT|INTERRES
   118   59  122 1    
   119   60   61 2    
   120   60   62 1    
   121   62   63 1    
   122   62   64 1    
   123   62  123 1    
   124   63  124 1    
   125   63  125 1    
   126   63  126 1    
   127   64   65 am   BACKBONE|DICT|INTERRES
   128   64  127 1    
   129   65   66 2    
@<TRIPOS>SUBSTRUCTURE
     1 UNK         1 GROUP             0       ****    0 ROOT    
