@<TRIPOS>MOLECULE
3R135
127   129    1
SMALL
USER_CHARGES


@<TRIPOS>ATOM
      1 CA        -85.4202   29.9312  -75.0794 C.3       0 UNK        -0.1998 
      2 C         -84.0708   29.2305  -75.1351 C.2       0 UNK         0.4909 
      3 O         -83.5776   28.9370  -76.2251 O.2       0 UNK        -0.5240 
      4 N         -83.4665   28.9695  -73.9695 N.am      1 UNK        -0.4739 
      5 CA        -82.1879   28.2626  -73.8285 C.3       1 UNK         0.0864 
      6 C6        -81.5777   28.4464  -72.4175 C.3       11 UNK        -0.0881 
      7 S7        -81.3163   30.1985  -71.9773 S.3       11 UNK        -0.2682 
      8 C8        -80.6465   30.0460  -70.2903 C.3       11 UNK         0.0289 
      9 C9        -79.2024   29.5684  -70.3054 C.ar      11 UNK        -0.0687 
     10 C10       -78.9103   28.2051  -70.2174 C.ar      11 UNK        -0.0823 
     11 C11       -77.5887   27.7612  -70.2905 C.ar      11 UNK        -0.0830 
     12 C12       -76.5542   28.6931  -70.3916 C.ar      11 UNK        -0.1021 
     13 C13       -76.8251   30.0655  -70.4747 C.ar      11 UNK        -0.0753 
     14 C14       -78.1577   30.4898  -70.4323 C.ar      11 UNK        -0.0933 
     15 C15       -75.7313   31.1258  -70.6415 C.3       11 UNK         0.0166 
     16 S16       -74.0073   30.5406  -70.4726 S.3       11 UNK        -0.2615 
     17 C17       -73.7621   29.5996  -72.0225 C.3       11 UNK        -0.0865 
     18 CA        -72.5774   30.1350  -72.8632 C.3       10 UNK         0.0862 
     19 C         -71.2077   29.8059  -72.2038 C.2       10 UNK         0.5551 
     20 N         -70.4928   30.8069  -71.7085 N.am      10 UNK        -0.7319 
     21 O         -70.8122   28.6458  -72.1096 O.2       10 UNK        -0.5018 
     22 N         -72.6481   29.6182  -74.2352 N.am      10 UNK        -0.4509 
     23 C         -71.8941   30.0559  -75.2521 C.2       10 UNK         0.4899 
     24 O         -71.1541   31.0392  -75.1870 O.2       10 UNK        -0.4839 
     25 CA        -71.9908   29.2439  -76.5556 C.3       9 UNK         0.0222 
     26 CB        -70.9336   29.6414  -77.6072 C.3       9 UNK        -0.1966 
     27 N         -71.9689   27.7998  -76.3024 N.am      9 UNK        -0.4218 
     28 C         -70.9886   27.0690  -75.7478 C.2       9 UNK         0.5020 
     29 O         -69.8928   27.5183  -75.4103 O.2       9 UNK        -0.5274 
     30 CA        -71.2813   25.5717  -75.5280 C.3       8 UNK         0.0270 
     31 CB        -71.7207   25.3238  -74.0755 C.3       8 UNK        -0.1976 
     32 N         -72.3003   25.0408  -76.4394 N.am      8 UNK        -0.4313 
     33 C         -72.1326   24.8956  -77.7620 C.2       8 UNK         0.5041 
     34 O         -71.0621   25.0818  -78.3421 O.2       8 UNK        -0.5577 
     35 CA        -73.3762   24.5181  -78.5829 C.3       7 UNK         0.0284 
     36 CB        -73.5920   22.9965  -78.5703 C.3       7 UNK        -0.1958 
     37 N         -74.5907   25.2032  -78.1258 N.am      7 UNK        -0.4454 
     38 C         -74.7909   26.5284  -78.1899 C.2       7 UNK         0.5089 
     39 O         -73.9869   27.3179  -78.6833 O.2       7 UNK        -0.5125 
     40 CA        -76.0844   27.0787  -77.5659 C.3       6 UNK         0.0408 
     41 CB        -77.2699   26.9150  -78.5293 C.3       6 UNK        -0.1791 
     42 N         -76.4039   26.4539  -76.2825 N.am      6 UNK        -0.4762 
     43 C         -75.6821   26.5810  -75.1580 C.2       6 UNK         0.5007 
     44 O         -74.6834   27.2968  -75.0538 O.2       6 UNK        -0.5032 
     45 CA        -76.1396   25.7251  -73.9601 C.3       5 UNK         0.0783 
     46 C46       -77.2781   26.4353  -73.1885 C.3       11 UNK        -0.0857 
     47 S47       -77.9453   25.4496  -71.7976 S.3       11 UNK        -0.2512 
     48 C48       -77.2713   26.2731  -70.3155 C.3       11 UNK         0.0225 
     49 N         -76.5154   24.3757  -74.3913 N.am      5 UNK        -0.4615 
     50 C         -75.6691   23.4654  -74.8888 C.2       4 UNK         0.5053 
     51 O         -74.4626   23.6587  -75.0365 O.2       4 UNK        -0.5105 
     52 CA        -76.2864   22.1290  -75.3323 C.3       4 UNK         0.0263 
     53 CB        -76.4886   21.1998  -74.1250 C.3       4 UNK        -0.1981 
     54 N         -77.5589   22.3038  -76.0391 N.am      4 UNK        -0.4224 
     55 C         -77.6824   22.9115  -77.2280 C.2       3 UNK         0.4895 
     56 O         -76.7336   23.3569  -77.8700 O.2       3 UNK        -0.5091 
     57 CA        -79.1057   23.0942  -77.7783 C.3       3 UNK         0.0250 
     58 CB        -79.5591   21.8341  -78.5324 C.3       3 UNK        -0.1996 
     59 N         -80.0966   23.4417  -76.7546 N.am      3 UNK        -0.4254 
     60 C         -80.0483   24.5366  -75.9838 C.2       2 UNK         0.5004 
     61 O         -79.1279   25.3598  -76.0070 O.2       2 UNK        -0.5226 
     62 CA        -81.2074   24.7247  -75.0013 C.3       2 UNK         0.0269 
     63 CB        -81.0266   23.8327  -73.7587 C.3       2 UNK        -0.1926 
     64 N         -81.2630   26.1310  -74.6114 N.am      2 UNK        -0.4687 
     65 C         -82.3467   26.7603  -74.1464 C.2       1 UNK         0.5165 
     66 O         -83.4243   26.1950  -73.9374 O.2       1 UNK        -0.5079 
     67 H67       -86.1858   29.3073  -75.5397 H         1 UNK         0.0900 
     68 H68       -85.3761   30.8745  -75.6231 H         1 UNK         0.0900 
     69 H69       -85.7268   30.1443  -74.0555 H         1 UNK         0.0900 
     70 H70       -83.9187   29.2256  -73.1037 H         1 UNK         0.2959 
     71 H71       -81.4941   28.6864  -74.5585 H         1 UNK         0.1079 
     72 H72       -82.2139   27.9867  -71.6582 H         1 UNK         0.0837 
     73 H73       -80.6144   27.9364  -72.3663 H         1 UNK         0.0837 
     74 H74       -80.7071   31.0182  -69.7988 H         1 UNK         0.0685 
     75 H75       -81.2704   29.3696  -69.7039 H         1 UNK         0.0685 
     76 H76       -79.7122   27.4839  -70.1365 H         1 UNK         0.1434 
     77 H77       -75.5406   28.3270  -70.4305 H         1 UNK         0.1329 
     78 H78       -78.3861   31.5442  -70.5108 H         1 UNK         0.1335 
     79 H79       -75.8880   31.9034  -69.8924 H         1 UNK         0.0680 
     80 H80       -75.8471   31.6090  -71.6128 H         1 UNK         0.0680 
     81 H81       -74.6813   29.6479  -72.6091 H         1 UNK         0.1032 
     82 H82       -73.6192   28.5437  -71.7842 H         1 UNK         0.1032 
     83 H83       -72.6821   31.2200  -72.9333 H         1 UNK         0.0461 
     84 H84       -70.8190   31.7584  -71.7745 H         1 UNK         0.3453 
     85 H85       -69.6093   30.6083  -71.2660 H         1 UNK         0.3453 
     86 H86       -73.2212   28.7959  -74.3837 H         1 UNK         0.2984 
     87 H87       -72.9727   29.4610  -76.9784 H         1 UNK         0.0554 
     88 H88       -71.0430   29.0526  -78.5181 H         1 UNK         0.0847 
     89 H89       -69.9177   29.5017  -77.2366 H         1 UNK         0.0847 
     90 H90       -71.0358   30.6909  -77.8856 H         1 UNK         0.0847 
     91 H91       -72.8349   27.3199  -76.5115 H         1 UNK         0.3141 
     92 H92       -70.3525   25.0251  -75.7036 H         1 UNK         0.0743 
     93 H93       -72.6572   25.8324  -73.8449 H         1 UNK         0.0784 
     94 H94       -71.8598   24.2606  -73.8784 H         1 UNK         0.0784 
     95 H95       -70.9711   25.6902  -73.3725 H         1 UNK         0.0784 
     96 H96       -73.1895   24.7695  -76.0265 H         1 UNK         0.3213 
     97 H97       -73.1937   24.8252  -79.6149 H         1 UNK         0.0855 
     98 H98       -73.8196   22.6286  -77.5696 H         1 UNK         0.0814 
     99 H99       -72.7002   22.4723  -78.9165 H         1 UNK         0.0814 
    100 H100      -74.4122   22.7074  -79.2277 H         1 UNK         0.0814 
    101 H101      -75.3434   24.6113  -77.7805 H         1 UNK         0.3105 
    102 H102      -75.9399   28.1462  -77.3866 H         1 UNK         0.0547 
    103 H103      -77.0727   27.4148  -79.4785 H         1 UNK         0.0837 
    104 H104      -77.4718   25.8665  -78.7487 H         1 UNK         0.0837 
    105 H105      -78.1800   27.3497  -78.1156 H         1 UNK         0.0837 
    106 H106      -77.2425   25.8796  -76.2517 H         1 UNK         0.3020 
    107 H107      -75.2836   25.6284  -73.2883 H         1 UNK         0.1245 
    108 H108      -78.1150   26.6492  -73.8552 H         1 UNK         0.0781 
    109 H109      -76.9346   27.4068  -72.8339 H         1 UNK         0.0781 
    110 H110      -76.1947   26.1000  -70.2770 H         1 UNK         0.0836 
    111 H111      -77.6894   25.8009  -69.4255 H         1 UNK         0.0836 
    112 H112      -77.4964   24.1495  -74.3284 H         1 UNK         0.3022 
    113 H113      -75.5837   21.6503  -76.0176 H         1 UNK         0.0747 
    114 H114      -76.8507   20.2194  -74.4352 H         1 UNK         0.0793 
    115 H115      -75.5487   21.0426  -73.5937 H         1 UNK         0.0793 
    116 H116      -77.2021   21.6112  -73.4096 H         1 UNK         0.0793 
    117 H117      -78.3925   21.9647  -75.5820 H         1 UNK         0.3047 
    118 H118      -79.0725   23.9209  -78.4910 H         1 UNK         0.0822 
    119 H119      -80.5219   21.9879  -79.0201 H         1 UNK         0.0807 
    120 H120      -79.6520   20.9741  -77.8679 H         1 UNK         0.0807 
    121 H121      -78.8434   21.5678  -79.3118 H         1 UNK         0.0807 
    122 H122      -80.8835   22.8152  -76.6606 H         1 UNK         0.2946 
    123 H123      -82.1361   24.4602  -75.5126 H         1 UNK         0.1144 
    124 H124      -80.0999   24.0591  -73.2326 H         1 UNK         0.0793 
    125 H125      -80.9984   22.7769  -74.0304 H         1 UNK         0.0793 
    126 H126      -81.8482   23.9593  -73.0536 H         1 UNK         0.0793 
    127 H127      -80.4109   26.6431  -74.8049 H         1 UNK         0.2896 
@<TRIPOS>BOND
     1    1    2 1    
     2    1   67 1    
     3    1   68 1    
     4    1   69 1    
     5    2    3 2    
     6    2    4 am   BACKBONE|DICT|INTERRES
     7    4    5 1    
     8    4   70 1    
     9    5    6 1    
    10    5   65 1    
    11    5   71 1    
    12    6    7 1    
    13    6   72 1    
    14    6   73 1    
    15    7    8 1    
    16    8    9 1    
    17    8   74 1    
    18    8   75 1    
    19    9   10 ar   
    20    9   14 ar   
    21   10   11 ar   
    22   10   76 1    
    23   11   12 ar   
    24   11   48 1    
    25   12   13 ar   
    26   12   77 1    
    27   13   14 ar   
    28   13   15 1    
    29   14   78 1    
    30   15   16 1    
    31   15   79 1    
    32   15   80 1    
    33   16   17 1    
    34   17   18 1    
    35   17   81 1    
    36   17   82 1    
    37   18   19 1    
    38   18   22 1    
    39   18   83 1    
    40   19   20 am   BACKBONE|DICT|INTERRES
    41   19   21 2    
    42   20   84 1    
    43   20   85 1    
    44   22   23 am   BACKBONE|DICT|INTERRES
    45   22   86 1    
    46   23   24 2    
    47   23   25 1    
    48   25   26 1    
    49   25   27 1    
    50   25   87 1    
    51   26   88 1    
    52   26   89 1    
    53   26   90 1    
    54   27   28 am   BACKBONE|DICT|INTERRES
    55   27   91 1    
    56   28   29 2    
    57   28   30 1    
    58   30   31 1    
    59   30   32 1    
    60   30   92 1    
    61   31   93 1    
    62   31   94 1    
    63   31   95 1    
    64   32   33 am   BACKBONE|DICT|INTERRES
    65   32   96 1    
    66   33   34 2    
    67   33   35 1    
    68   35   36 1    
    69   35   37 1    
    70   35   97 1    
    71   36   98 1    
    72   36   99 1    
    73   36  100 1    
    74   37   38 am   BACKBONE|DICT|INTERRES
    75   37  101 1    
    76   38   39 2    
    77   38   40 1    
    78   40   41 1    
    79   40   42 1    
    80   40  102 1    
    81   41  103 1    
    82   41  104 1    
    83   41  105 1    
    84   42   43 am   BACKBONE|DICT|INTERRES
    85   42  106 1    
    86   43   44 2    
    87   43   45 1    
    88   45   46 1    
    89   45   49 1    
    90   45  107 1    
    91   46   47 1    
    92   46  108 1    
    93   46  109 1    
    94   47   48 1    
    95   48  110 1    
    96   48  111 1    
    97   49   50 am   BACKBONE|DICT|INTERRES
    98   49  112 1    
    99   50   51 2    
   100   50   52 1    
   101   52   53 1    
   102   52   54 1    
   103   52  113 1    
   104   53  114 1    
   105   53  115 1    
   106   53  116 1    
   107   54   55 am   BACKBONE|DICT|INTERRES
   108   54  117 1    
   109   55   56 2    
   110   55   57 1    
   111   57   58 1    
   112   57   59 1    
   113   57  118 1    
   114   58  119 1    
   115   58  120 1    
   116   58  121 1    
   117   59   60 am   BACKBONE|DICT|INTERRES
   118   59  122 1    
   119   60   61 2    
   120   60   62 1    
   121   62   63 1    
   122   62   64 1    
   123   62  123 1    
   124   63  124 1    
   125   63  125 1    
   126   63  126 1    
   127   64   65 am   BACKBONE|DICT|INTERRES
   128   64  127 1    
   129   65   66 2    
@<TRIPOS>SUBSTRUCTURE
     1 UNK         1 GROUP             0       ****    0 ROOT    
