@<TRIPOS>MOLECULE
3R135
127   129    1
SMALL
USER_CHARGES


@<TRIPOS>ATOM
      1 CA        -85.8220   25.6482  -71.6254 C.3       0 UNK        -0.1998 
      2 C         -84.9053   26.8567  -71.7394 C.2       0 UNK         0.4909 
      3 O         -85.3498   27.9260  -72.1576 O.2       0 UNK        -0.5240 
      4 N         -83.6278   26.6954  -71.3703 N.am      1 UNK        -0.4739 
      5 CA        -82.5954   27.7392  -71.4363 C.3       1 UNK         0.0864 
      6 C6        -81.3781   27.3796  -70.5436 C.3       11 UNK        -0.0881 
      7 S7        -80.5055   25.8559  -71.0691 S.3       11 UNK        -0.2682 
      8 C8        -78.7566   26.2416  -70.7042 C.3       11 UNK         0.0289 
      9 C9        -78.2360   27.5230  -71.3525 C.ar      11 UNK        -0.0687 
     10 C10       -78.5337   27.8367  -72.6822 C.ar      11 UNK        -0.0823 
     11 C11       -78.0494   29.0098  -73.2681 C.ar      11 UNK        -0.0830 
     12 C12       -77.2567   29.8774  -72.5099 C.ar      11 UNK        -0.1021 
     13 C13       -76.9329   29.5691  -71.1847 C.ar      11 UNK        -0.0753 
     14 C14       -77.4273   28.3924  -70.6136 C.ar      11 UNK        -0.0933 
     15 C15       -76.0674   30.5105  -70.3571 C.3       11 UNK         0.0166 
     16 S16       -74.2875   30.1603  -70.5479 S.3       11 UNK        -0.2615 
     17 C17       -73.9124   30.9859  -72.1329 C.3       11 UNK        -0.0865 
     18 CA        -73.6804   29.9733  -73.2922 C.3       10 UNK         0.0862 
     19 C         -73.7577   30.6376  -74.7034 C.2       10 UNK         0.5551 
     20 N         -73.0388   30.1481  -75.7070 N.am      10 UNK        -0.7319 
     21 O         -74.5147   31.5833  -74.9072 O.2       10 UNK        -0.5018 
     22 N         -72.4988   29.1149  -73.0874 N.am      10 UNK        -0.4509 
     23 C         -71.2223   29.5241  -73.0963 C.2       10 UNK         0.4899 
     24 O         -70.8761   30.7043  -73.1590 O.2       10 UNK        -0.4839 
     25 CA        -70.1307   28.4380  -73.0559 C.3       9 UNK         0.0222 
     26 CB        -69.6279   28.2490  -71.6150 C.3       9 UNK        -0.1966 
     27 N         -70.5003   27.1282  -73.6129 N.am      9 UNK        -0.4218 
     28 C         -70.9804   26.8847  -74.8414 C.2       9 UNK         0.5020 
     29 O         -71.2983   27.7596  -75.6524 O.2       9 UNK        -0.5274 
     30 CA        -71.1418   25.4065  -75.2170 C.3       8 UNK         0.0270 
     31 CB        -72.2066   24.7092  -74.3461 C.3       8 UNK        -0.1976 
     32 N         -71.4883   25.3055  -76.6352 N.am      8 UNK        -0.4313 
     33 C         -71.2414   24.2482  -77.4182 C.2       8 UNK         0.5041 
     34 O         -70.7207   23.2080  -77.0090 O.2       8 UNK        -0.5577 
     35 CA        -71.6495   24.3709  -78.8968 C.3       7 UNK         0.0284 
     36 CB        -71.4455   23.0650  -79.6933 C.3       7 UNK        -0.1958 
     37 N         -73.0418   24.8054  -78.9971 N.am      7 UNK        -0.4454 
     38 C         -73.5689   25.4861  -80.0257 C.2       7 UNK         0.5089 
     39 O         -72.9311   25.8035  -81.0305 O.2       7 UNK        -0.5125 
     40 CA        -75.0546   25.8977  -79.9255 C.3       6 UNK         0.0408 
     41 CB        -75.9415   24.8847  -80.6663 C.3       6 UNK        -0.1791 
     42 N         -75.5257   26.0293  -78.5447 N.am      6 UNK        -0.4762 
     43 C         -75.0572   26.9263  -77.6664 C.2       6 UNK         0.5007 
     44 O         -74.3296   27.8650  -77.9911 O.2       6 UNK        -0.5032 
     45 CA        -75.3748   26.7102  -76.1705 C.3       5 UNK         0.0783 
     46 C46       -76.1028   27.9191  -75.5398 C.3       11 UNK        -0.0857 
     47 S47       -77.8929   28.0073  -75.8752 S.3       11 UNK        -0.2512 
     48 C48       -78.3744   29.3383  -74.7216 C.3       11 UNK         0.0225 
     49 N         -76.0116   25.4325  -75.8137 N.am      5 UNK        -0.4615 
     50 C         -75.5242   24.2023  -76.0128 C.2       4 UNK         0.5053 
     51 O         -74.4924   23.9833  -76.6449 O.2       4 UNK        -0.5105 
     52 CA        -76.3018   23.0027  -75.4391 C.3       4 UNK         0.0263 
     53 CB        -75.7486   22.6222  -74.0517 C.3       4 UNK        -0.1981 
     54 N         -77.7692   23.1275  -75.4097 N.am      4 UNK        -0.4224 
     55 C         -78.5261   23.9711  -74.6944 C.2       3 UNK         0.4895 
     56 O         -78.0743   24.8574  -73.9689 O.2       3 UNK        -0.5091 
     57 CA        -80.0430   23.7570  -74.7777 C.3       3 UNK         0.0250 
     58 CB        -80.4970   22.7717  -73.6880 C.3       3 UNK        -0.1996 
     59 N         -80.7509   25.0219  -74.5890 N.am      3 UNK        -0.4254 
     60 C         -81.1230   25.8465  -75.5782 C.2       2 UNK         0.5004 
     61 O         -80.9266   25.6052  -76.7701 O.2       2 UNK        -0.5226 
     62 CA        -81.8603   27.1405  -75.1821 C.3       2 UNK         0.0269 
     63 CB        -83.0701   27.4180  -76.0937 C.3       2 UNK        -0.1926 
     64 N         -82.3119   27.0949  -73.7899 N.am      2 UNK        -0.4687 
     65 C         -82.1644   28.0707  -72.8842 C.2       1 UNK         0.5165 
     66 O         -81.7031   29.1824  -73.1433 O.2       1 UNK        -0.5079 
     67 H67       -86.2308   25.3940  -72.6030 H         1 UNK         0.0900 
     68 H68       -86.6525   25.8695  -70.9556 H         1 UNK         0.0900 
     69 H69       -85.2986   24.7739  -71.2387 H         1 UNK         0.0900 
     70 H70       -83.3147   25.7992  -71.0231 H         1 UNK         0.2959 
     71 H71       -83.0339   28.6555  -71.0340 H         1 UNK         0.1079 
     72 H72       -81.7057   27.2424  -69.5120 H         1 UNK         0.0837 
     73 H73       -80.6835   28.2204  -70.5150 H         1 UNK         0.0837 
     74 H74       -78.6396   26.2879  -69.6204 H         1 UNK         0.0685 
     75 H75       -78.1411   25.4087  -71.0468 H         1 UNK         0.0685 
     76 H76       -79.1395   27.1615  -73.2689 H         1 UNK         0.1434 
     77 H77       -76.8823   30.7890  -72.9546 H         1 UNK         0.1329 
     78 H78       -77.1795   28.1540  -69.5883 H         1 UNK         0.1335 
     79 H79       -76.3250   30.4110  -69.3015 H         1 UNK         0.0680 
     80 H80       -76.2778   31.5494  -70.6156 H         1 UNK         0.0680 
     81 H81       -73.0379   31.6229  -71.9960 H         1 UNK         0.1032 
     82 H82       -74.7279   31.6708  -72.3672 H         1 UNK         0.1032 
     83 H83       -74.5260   29.2871  -73.2818 H         1 UNK         0.0461 
     84 H84       -72.4232   29.3514  -75.5759 H         1 UNK         0.3453 
     85 H85       -73.1192   30.5674  -76.6189 H         1 UNK         0.3453 
     86 H86       -72.6794   28.1246  -73.0253 H         1 UNK         0.2984 
     87 H87       -69.2976   28.8080  -73.6569 H         1 UNK         0.0554 
     88 H88       -68.7664   27.5821  -71.5759 H         1 UNK         0.0847 
     89 H89       -70.4037   27.8377  -70.9679 H         1 UNK         0.0847 
     90 H90       -69.3153   29.2004  -71.1816 H         1 UNK         0.0847 
     91 H91       -70.2922   26.3322  -73.0269 H         1 UNK         0.3141 
     92 H92       -70.1758   24.9218  -75.0593 H         1 UNK         0.0743 
     93 H93       -72.3737   23.6815  -74.6693 H         1 UNK         0.0784 
     94 H94       -71.8993   24.6669  -73.3010 H         1 UNK         0.0784 
     95 H95       -73.1641   25.2265  -74.3805 H         1 UNK         0.0784 
     96 H96       -71.8452   26.1641  -77.0387 H         1 UNK         0.3213 
     97 H97       -71.0056   25.1397  -79.3295 H         1 UNK         0.0855 
     98 H98       -72.0704   22.2595  -79.3058 H         1 UNK         0.0814 
     99 H99       -70.4085   22.7312  -79.6402 H         1 UNK         0.0814 
    100 H100      -71.6858   23.1980  -80.7481 H         1 UNK         0.0814 
    101 H101      -73.6296   24.5734  -78.1964 H         1 UNK         0.3105 
    102 H102      -75.1628   26.8691  -80.4124 H         1 UNK         0.0547 
    103 H103      -75.8855   23.8930  -80.2157 H         1 UNK         0.0837 
    104 H104      -76.9861   25.1964  -80.6674 H         1 UNK         0.0837 
    105 H105      -75.6335   24.7864  -81.7082 H         1 UNK         0.0837 
    106 H106      -76.1121   25.2887  -78.1884 H         1 UNK         0.3020 
    107 H107      -74.3869   26.6808  -75.7081 H         1 UNK         0.1245 
    108 H108      -75.9640   27.8646  -74.4603 H         1 UNK         0.0781 
    109 H109      -75.6513   28.8605  -75.8532 H         1 UNK         0.0781 
    110 H110      -77.8777   30.2597  -75.0299 H         1 UNK         0.0836 
    111 H111      -79.4445   29.5252  -74.8113 H         1 UNK         0.0836 
    112 H112      -76.8551   25.5043  -75.2495 H         1 UNK         0.3022 
    113 H113      -76.0976   22.1653  -76.1084 H         1 UNK         0.0747 
    114 H114      -76.2266   21.7214  -73.6670 H         1 UNK         0.0793 
    115 H115      -74.6769   22.4242  -74.1010 H         1 UNK         0.0793 
    116 H116      -75.8958   23.4185  -73.3213 H         1 UNK         0.0793 
    117 H117      -78.2538   22.4569  -75.9909 H         1 UNK         0.3047 
    118 H118      -80.2933   23.3364  -75.7543 H         1 UNK         0.0822 
    119 H119      -81.5737   22.6050  -73.7272 H         1 UNK         0.0807 
    120 H120      -80.2500   23.1327  -72.6884 H         1 UNK         0.0807 
    121 H121      -80.0149   21.8010  -73.8110 H         1 UNK         0.0807 
    122 H122      -80.8519   25.3327  -73.6329 H         1 UNK         0.2946 
    123 H123      -81.1384   27.9485  -75.3127 H         1 UNK         0.1144 
    124 H124      -83.5659   28.3493  -75.8192 H         1 UNK         0.0793 
    125 H125      -83.8075   26.6165  -76.0374 H         1 UNK         0.0793 
    126 H126      -82.7652   27.5116  -77.1368 H         1 UNK         0.0793 
    127 H127      -82.7355   26.2302  -73.4837 H         1 UNK         0.2896 
@<TRIPOS>BOND
     1    1    2 1    
     2    1   67 1    
     3    1   68 1    
     4    1   69 1    
     5    2    3 2    
     6    2    4 am   BACKBONE|DICT|INTERRES
     7    4    5 1    
     8    4   70 1    
     9    5    6 1    
    10    5   65 1    
    11    5   71 1    
    12    6    7 1    
    13    6   72 1    
    14    6   73 1    
    15    7    8 1    
    16    8    9 1    
    17    8   74 1    
    18    8   75 1    
    19    9   10 ar   
    20    9   14 ar   
    21   10   11 ar   
    22   10   76 1    
    23   11   12 ar   
    24   11   48 1    
    25   12   13 ar   
    26   12   77 1    
    27   13   14 ar   
    28   13   15 1    
    29   14   78 1    
    30   15   16 1    
    31   15   79 1    
    32   15   80 1    
    33   16   17 1    
    34   17   18 1    
    35   17   81 1    
    36   17   82 1    
    37   18   19 1    
    38   18   22 1    
    39   18   83 1    
    40   19   20 am   BACKBONE|DICT|INTERRES
    41   19   21 2    
    42   20   84 1    
    43   20   85 1    
    44   22   23 am   BACKBONE|DICT|INTERRES
    45   22   86 1    
    46   23   24 2    
    47   23   25 1    
    48   25   26 1    
    49   25   27 1    
    50   25   87 1    
    51   26   88 1    
    52   26   89 1    
    53   26   90 1    
    54   27   28 am   BACKBONE|DICT|INTERRES
    55   27   91 1    
    56   28   29 2    
    57   28   30 1    
    58   30   31 1    
    59   30   32 1    
    60   30   92 1    
    61   31   93 1    
    62   31   94 1    
    63   31   95 1    
    64   32   33 am   BACKBONE|DICT|INTERRES
    65   32   96 1    
    66   33   34 2    
    67   33   35 1    
    68   35   36 1    
    69   35   37 1    
    70   35   97 1    
    71   36   98 1    
    72   36   99 1    
    73   36  100 1    
    74   37   38 am   BACKBONE|DICT|INTERRES
    75   37  101 1    
    76   38   39 2    
    77   38   40 1    
    78   40   41 1    
    79   40   42 1    
    80   40  102 1    
    81   41  103 1    
    82   41  104 1    
    83   41  105 1    
    84   42   43 am   BACKBONE|DICT|INTERRES
    85   42  106 1    
    86   43   44 2    
    87   43   45 1    
    88   45   46 1    
    89   45   49 1    
    90   45  107 1    
    91   46   47 1    
    92   46  108 1    
    93   46  109 1    
    94   47   48 1    
    95   48  110 1    
    96   48  111 1    
    97   49   50 am   BACKBONE|DICT|INTERRES
    98   49  112 1    
    99   50   51 2    
   100   50   52 1    
   101   52   53 1    
   102   52   54 1    
   103   52  113 1    
   104   53  114 1    
   105   53  115 1    
   106   53  116 1    
   107   54   55 am   BACKBONE|DICT|INTERRES
   108   54  117 1    
   109   55   56 2    
   110   55   57 1    
   111   57   58 1    
   112   57   59 1    
   113   57  118 1    
   114   58  119 1    
   115   58  120 1    
   116   58  121 1    
   117   59   60 am   BACKBONE|DICT|INTERRES
   118   59  122 1    
   119   60   61 2    
   120   60   62 1    
   121   62   63 1    
   122   62   64 1    
   123   62  123 1    
   124   63  124 1    
   125   63  125 1    
   126   63  126 1    
   127   64   65 am   BACKBONE|DICT|INTERRES
   128   64  127 1    
   129   65   66 2    
@<TRIPOS>SUBSTRUCTURE
     1 UNK         1 GROUP             0       ****    0 ROOT    
