@<TRIPOS>MOLECULE
3R135
127   129    1
SMALL
USER_CHARGES


@<TRIPOS>ATOM
      1 CA        -79.0666   27.6932  -69.2069 C.3       0 UNK        -0.1998 
      2 C         -80.4422   27.9153  -69.8135 C.2       0 UNK         0.4909 
      3 O         -81.4505   27.7508  -69.1262 O.2       0 UNK        -0.5240 
      4 N         -80.4918   28.2912  -71.0987 N.am      1 UNK        -0.4739 
      5 CA        -81.7311   28.5586  -71.8412 C.3       1 UNK         0.0864 
      6 C6        -81.4985   29.5376  -73.0208 C.3       11 UNK        -0.0881 
      7 S7        -80.6454   28.8330  -74.4732 S.3       11 UNK        -0.2682 
      8 C8        -78.9373   29.4429  -74.2785 C.3       11 UNK         0.0289 
      9 C9        -78.1043   28.6559  -73.2700 C.ar      11 UNK        -0.0687 
     10 C10       -78.1780   27.2596  -73.2018 C.ar      11 UNK        -0.0823 
     11 C11       -77.3569   26.5356  -72.3319 C.ar      11 UNK        -0.0830 
     12 C12       -76.4462   27.2259  -71.5274 C.ar      11 UNK        -0.1021 
     13 C13       -76.3654   28.6209  -71.5761 C.ar      11 UNK        -0.0753 
     14 C14       -77.2044   29.3302  -72.4397 C.ar      11 UNK        -0.0933 
     15 C15       -75.3728   29.3539  -70.6876 C.3       11 UNK         0.0166 
     16 S16       -73.7724   29.5819  -71.5256 S.3       11 UNK        -0.2615 
     17 C17       -73.9399   31.2415  -72.2707 C.3       11 UNK        -0.0865 
     18 CA        -74.3007   31.2362  -73.7801 C.3       10 UNK         0.0862 
     19 C         -74.4737   32.6969  -74.2922 C.2       10 UNK         0.5551 
     20 N         -73.6008   33.2095  -75.1512 N.am      10 UNK        -0.7319 
     21 O         -75.4192   33.3750  -73.8982 O.2       10 UNK        -0.5018 
     22 N         -73.3853   30.3952  -74.5701 N.am      10 UNK        -0.4509 
     23 C         -73.5964   30.0047  -75.8328 C.2       10 UNK         0.4899 
     24 O         -74.5824   30.3280  -76.4951 O.2       10 UNK        -0.4839 
     25 CA        -72.5475   29.0793  -76.4694 C.3       9 UNK         0.0222 
     26 CB        -71.3020   29.8576  -76.9356 C.3       9 UNK        -0.1966 
     27 N         -72.2030   27.9232  -75.6354 N.am      9 UNK        -0.4218 
     28 C         -71.5022   27.8662  -74.4933 C.2       9 UNK         0.5020 
     29 O         -70.9951   28.8459  -73.9454 O.2       9 UNK        -0.5274 
     30 CA        -71.3525   26.4787  -73.8472 C.3       8 UNK         0.0270 
     31 CB        -72.5167   26.2116  -72.8777 C.3       8 UNK        -0.1976 
     32 N         -71.3157   25.4165  -74.8563 N.am      8 UNK        -0.4313 
     33 C         -70.1990   24.8986  -75.3854 C.2       8 UNK         0.5041 
     34 O         -69.0623   25.2179  -75.0340 O.2       8 UNK        -0.5577 
     35 CA        -70.3693   23.8372  -76.4904 C.3       7 UNK         0.0284 
     36 CB        -70.3741   22.4257  -75.8811 C.3       7 UNK        -0.1958 
     37 N         -71.5822   24.0209  -77.2928 N.am      7 UNK        -0.4454 
     38 C         -71.7663   25.0118  -78.1765 C.2       7 UNK         0.5089 
     39 O         -70.9001   25.8360  -78.4692 O.2       7 UNK        -0.5125 
     40 CA        -73.1599   25.1257  -78.8273 C.3       6 UNK         0.0408 
     41 CB        -73.1694   24.4261  -80.1954 C.3       6 UNK        -0.1791 
     42 N         -74.2830   24.6220  -78.0225 N.am      6 UNK        -0.4762 
     43 C         -74.5935   25.0001  -76.7750 C.2       6 UNK         0.5007 
     44 O         -73.8855   25.7597  -76.1136 O.2       6 UNK        -0.5032 
     45 CA        -75.9066   24.4556  -76.1706 C.3       5 UNK         0.0783 
     46 C46       -75.9980   24.7762  -74.6542 C.3       11 UNK        -0.0857 
     47 S47       -77.5307   24.1757  -73.8689 S.3       11 UNK        -0.2512 
     48 C48       -77.4426   25.0121  -72.2472 C.3       11 UNK         0.0225 
     49 N         -77.0734   24.9596  -76.9029 N.am      5 UNK        -0.4615 
     50 C         -77.4817   24.5735  -78.1168 C.2       4 UNK         0.5053 
     51 O         -76.8939   23.7278  -78.7948 O.2       4 UNK        -0.5105 
     52 CA        -78.7860   25.2144  -78.6327 C.3       4 UNK         0.0263 
     53 CB        -78.9970   24.9856  -80.1410 C.3       4 UNK        -0.1981 
     54 N         -79.9452   24.6934  -77.9036 N.am      4 UNK        -0.4224 
     55 C         -80.2723   25.0313  -76.6497 C.2       3 UNK         0.4895 
     56 O         -79.6905   25.9128  -76.0150 O.2       3 UNK        -0.5091 
     57 CA        -81.3989   24.2267  -75.9866 C.3       3 UNK         0.0250 
     58 CB        -81.0749   22.7145  -75.9999 C.3       3 UNK        -0.1996 
     59 N         -81.5681   24.6896  -74.6086 N.am      3 UNK        -0.4254 
     60 C         -82.5772   24.3637  -73.7928 C.2       2 UNK         0.5004 
     61 O         -83.5626   23.7151  -74.1476 O.2       2 UNK        -0.5226 
     62 CA        -82.4594   24.7930  -72.3224 C.3       2 UNK         0.0269 
     63 CB        -81.6565   23.7482  -71.5292 C.3       2 UNK        -0.1926 
     64 N         -81.8428   26.1071  -72.1359 N.am      2 UNK        -0.4687 
     65 C         -82.4937   27.2743  -72.2495 C.2       1 UNK         0.5165 
     66 O         -83.6645   27.3627  -72.6238 O.2       1 UNK        -0.5079 
     67 H67       -78.3628   28.4500  -69.5504 H         1 UNK         0.0900 
     68 H68       -78.6847   26.7101  -69.4804 H         1 UNK         0.0900 
     69 H69       -79.1123   27.7509  -68.1196 H         1 UNK         0.0900 
     70 H70       -79.6340   28.3961  -71.6261 H         1 UNK         0.2959 
     71 H71       -82.4024   29.0750  -71.1508 H         1 UNK         0.1079 
     72 H72       -80.9595   30.4198  -72.6721 H         1 UNK         0.0837 
     73 H73       -82.4623   29.9134  -73.3691 H         1 UNK         0.0837 
     74 H74       -78.9616   30.5037  -74.0246 H         1 UNK         0.0685 
     75 H75       -78.4406   29.3725  -75.2470 H         1 UNK         0.0685 
     76 H76       -78.8671   26.7300  -73.8411 H         1 UNK         0.1434 
     77 H77       -75.7971   26.6788  -70.8572 H         1 UNK         0.1329 
     78 H78       -77.1377   30.4087  -72.4807 H         1 UNK         0.1335 
     79 H79       -75.2046   28.7786  -69.7759 H         1 UNK         0.0680 
     80 H80       -75.7817   30.3114  -70.3628 H         1 UNK         0.0680 
     81 H81       -72.9906   31.7596  -72.1218 H         1 UNK         0.1032 
     82 H82       -74.6761   31.8149  -71.7046 H         1 UNK         0.1032 
     83 H83       -75.2842   30.7765  -73.8781 H         1 UNK         0.0461 
     84 H84       -72.8250   32.6566  -75.4779 H         1 UNK         0.3453 
     85 H85       -73.7231   34.1550  -75.4777 H         1 UNK         0.3453 
     86 H86       -72.5526   30.0547  -74.0990 H         1 UNK         0.2984 
     87 H87       -73.0097   28.6521  -77.3610 H         1 UNK         0.0554 
     88 H88       -70.5915   29.1999  -77.4366 H         1 UNK         0.0847 
     89 H89       -70.7839   30.3427  -76.1082 H         1 UNK         0.0847 
     90 H90       -71.5772   30.6385  -77.6457 H         1 UNK         0.0847 
     91 H91       -72.6767   27.0655  -75.9130 H         1 UNK         0.3141 
     92 H92       -70.4244   26.4731  -73.2716 H         1 UNK         0.0743 
     93 H93       -72.4474   25.2176  -72.4357 H         1 UNK         0.0784 
     94 H94       -72.5077   26.9294  -72.0573 H         1 UNK         0.0784 
     95 H95       -73.4867   26.2943  -73.3701 H         1 UNK         0.0784 
     96 H96       -72.2096   25.1452  -75.2510 H         1 UNK         0.3213 
     97 H97       -69.5071   23.9173  -77.1564 H         1 UNK         0.0855 
     98 H98       -71.2232   22.2749  -75.2133 H         1 UNK         0.0814 
     99 H99       -69.4679   22.2500  -75.2994 H         1 UNK         0.0814 
    100 H100      -70.4131   21.6588  -76.6549 H         1 UNK         0.0814 
    101 H101      -72.3457   23.3800  -77.1323 H         1 UNK         0.3105 
    102 H102      -73.3443   26.1892  -78.9918 H         1 UNK         0.0547 
    103 H103      -72.3672   24.8009  -80.8329 H         1 UNK         0.0837 
    104 H104      -73.0322   23.3486  -80.0978 H         1 UNK         0.0837 
    105 H105      -74.1072   24.5988  -80.7238 H         1 UNK         0.0837 
    106 H106      -74.9644   24.0424  -78.5051 H         1 UNK         0.3020 
    107 H107      -75.8829   23.3689  -76.2786 H         1 UNK         0.1245 
    108 H108      -75.9308   25.8547  -74.5001 H         1 UNK         0.0781 
    109 H109      -75.1538   24.3378  -74.1185 H         1 UNK         0.0781 
    110 H110      -76.5852   24.6111  -71.7043 H         1 UNK         0.0836 
    111 H111      -78.3253   24.7443  -71.6660 H         1 UNK         0.0836 
    112 H112      -77.6742   25.5974  -76.3915 H         1 UNK         0.3022 
    113 H113      -78.7154   26.2917  -78.4661 H         1 UNK         0.0747 
    114 H114      -79.8880   25.5016  -80.4991 H         1 UNK         0.0793 
    115 H115      -78.1508   25.3666  -80.7146 H         1 UNK         0.0793 
    116 H116      -79.1031   23.9269  -80.3811 H         1 UNK         0.0793 
    117 H117      -80.4549   23.9460  -78.3520 H         1 UNK         0.3047 
    118 H118      -82.3217   24.4156  -76.5387 H         1 UNK         0.0822 
    119 H119      -80.9748   22.3309  -77.0155 H         1 UNK         0.0807 
    120 H120      -81.8600   22.1269  -75.5246 H         1 UNK         0.0807 
    121 H121      -80.1409   22.5034  -75.4767 H         1 UNK         0.0807 
    122 H122      -80.8219   25.2891  -74.2789 H         1 UNK         0.2946 
    123 H123      -83.4712   24.8229  -71.9103 H         1 UNK         0.1144 
    124 H124      -82.1140   22.7612  -71.6117 H         1 UNK         0.0793 
    125 H125      -80.6320   23.6622  -71.8933 H         1 UNK         0.0793 
    126 H126      -81.6179   23.9979  -70.4686 H         1 UNK         0.0793 
    127 H127      -80.8862   26.1300  -71.8162 H         1 UNK         0.2896 
@<TRIPOS>BOND
     1    1    2 1    
     2    1   67 1    
     3    1   68 1    
     4    1   69 1    
     5    2    3 2    
     6    2    4 am   BACKBONE|DICT|INTERRES
     7    4    5 1    
     8    4   70 1    
     9    5    6 1    
    10    5   65 1    
    11    5   71 1    
    12    6    7 1    
    13    6   72 1    
    14    6   73 1    
    15    7    8 1    
    16    8    9 1    
    17    8   74 1    
    18    8   75 1    
    19    9   10 ar   
    20    9   14 ar   
    21   10   11 ar   
    22   10   76 1    
    23   11   12 ar   
    24   11   48 1    
    25   12   13 ar   
    26   12   77 1    
    27   13   14 ar   
    28   13   15 1    
    29   14   78 1    
    30   15   16 1    
    31   15   79 1    
    32   15   80 1    
    33   16   17 1    
    34   17   18 1    
    35   17   81 1    
    36   17   82 1    
    37   18   19 1    
    38   18   22 1    
    39   18   83 1    
    40   19   20 am   BACKBONE|DICT|INTERRES
    41   19   21 2    
    42   20   84 1    
    43   20   85 1    
    44   22   23 am   BACKBONE|DICT|INTERRES
    45   22   86 1    
    46   23   24 2    
    47   23   25 1    
    48   25   26 1    
    49   25   27 1    
    50   25   87 1    
    51   26   88 1    
    52   26   89 1    
    53   26   90 1    
    54   27   28 am   BACKBONE|DICT|INTERRES
    55   27   91 1    
    56   28   29 2    
    57   28   30 1    
    58   30   31 1    
    59   30   32 1    
    60   30   92 1    
    61   31   93 1    
    62   31   94 1    
    63   31   95 1    
    64   32   33 am   BACKBONE|DICT|INTERRES
    65   32   96 1    
    66   33   34 2    
    67   33   35 1    
    68   35   36 1    
    69   35   37 1    
    70   35   97 1    
    71   36   98 1    
    72   36   99 1    
    73   36  100 1    
    74   37   38 am   BACKBONE|DICT|INTERRES
    75   37  101 1    
    76   38   39 2    
    77   38   40 1    
    78   40   41 1    
    79   40   42 1    
    80   40  102 1    
    81   41  103 1    
    82   41  104 1    
    83   41  105 1    
    84   42   43 am   BACKBONE|DICT|INTERRES
    85   42  106 1    
    86   43   44 2    
    87   43   45 1    
    88   45   46 1    
    89   45   49 1    
    90   45  107 1    
    91   46   47 1    
    92   46  108 1    
    93   46  109 1    
    94   47   48 1    
    95   48  110 1    
    96   48  111 1    
    97   49   50 am   BACKBONE|DICT|INTERRES
    98   49  112 1    
    99   50   51 2    
   100   50   52 1    
   101   52   53 1    
   102   52   54 1    
   103   52  113 1    
   104   53  114 1    
   105   53  115 1    
   106   53  116 1    
   107   54   55 am   BACKBONE|DICT|INTERRES
   108   54  117 1    
   109   55   56 2    
   110   55   57 1    
   111   57   58 1    
   112   57   59 1    
   113   57  118 1    
   114   58  119 1    
   115   58  120 1    
   116   58  121 1    
   117   59   60 am   BACKBONE|DICT|INTERRES
   118   59  122 1    
   119   60   61 2    
   120   60   62 1    
   121   62   63 1    
   122   62   64 1    
   123   62  123 1    
   124   63  124 1    
   125   63  125 1    
   126   63  126 1    
   127   64   65 am   BACKBONE|DICT|INTERRES
   128   64  127 1    
   129   65   66 2    
@<TRIPOS>SUBSTRUCTURE
     1 UNK         1 GROUP             0       ****    0 ROOT    
