@<TRIPOS>MOLECULE
3R135
127   129    1
SMALL
USER_CHARGES


@<TRIPOS>ATOM
      1 CA        -80.7003   23.0866  -67.9488 C.3       0 UNK        -0.1998 
      2 C         -80.5754   23.6871  -69.3404 C.2       0 UNK         0.4909 
      3 O         -79.8425   23.1543  -70.1740 O.2       0 UNK        -0.5240 
      4 N         -81.3059   24.7788  -69.6107 N.am      1 UNK        -0.4739 
      5 CA        -81.3250   25.5683  -70.8565 C.3       1 UNK         0.0864 
      6 C6        -79.9166   26.1049  -71.2414 C.3       11 UNK        -0.0881 
      7 S7        -79.9662   27.7614  -71.9989 S.3       11 UNK        -0.2682 
      8 C8        -78.3825   27.7546  -72.8905 C.3       11 UNK         0.0289 
      9 C9        -77.9880   29.1585  -73.3214 C.ar      11 UNK        -0.0687 
     10 C10       -78.3395   29.6364  -74.5887 C.ar      11 UNK        -0.0823 
     11 C11       -77.9676   30.9253  -74.9858 C.ar      11 UNK        -0.0830 
     12 C12       -77.2558   31.7387  -74.1009 C.ar      11 UNK        -0.1021 
     13 C13       -76.9072   31.2764  -72.8301 C.ar      11 UNK        -0.0753 
     14 C14       -77.2699   29.9819  -72.4467 C.ar      11 UNK        -0.0933 
     15 C15       -76.1666   32.1988  -71.8739 C.3       11 UNK         0.0166 
     16 S16       -74.3959   32.3052  -72.2758 S.3       11 UNK        -0.2615 
     17 C17       -73.7258   30.9375  -71.2751 C.3       11 UNK        -0.0865 
     18 CA        -72.3298   30.4780  -71.7690 C.3       10 UNK         0.0862 
     19 C         -71.6329   29.5836  -70.6993 C.2       10 UNK         0.5551 
     20 N         -71.3418   28.3149  -70.9589 N.am      10 UNK        -0.7319 
     21 O         -71.3437   30.0599  -69.6042 O.2       10 UNK        -0.5018 
     22 N         -72.4030   29.8914  -73.1173 N.am      10 UNK        -0.4509 
     23 C         -71.3574   29.7084  -73.9337 C.2       10 UNK         0.4899 
     24 O         -70.2239   30.1267  -73.6911 O.2       10 UNK        -0.4839 
     25 CA        -71.6223   28.9120  -75.2315 C.3       9 UNK         0.0222 
     26 CB        -70.3377   28.2866  -75.8136 C.3       9 UNK        -0.1966 
     27 N         -72.6666   27.8836  -75.1114 N.am      9 UNK        -0.4218 
     28 C         -72.7305   26.8913  -74.2074 C.2       9 UNK         0.5020 
     29 O         -71.9195   26.7320  -73.2945 O.2       9 UNK        -0.5274 
     30 CA        -73.9075   25.9145  -74.3382 C.3       8 UNK         0.0270 
     31 CB        -75.2307   26.5904  -73.9411 C.3       8 UNK        -0.1976 
     32 N         -74.0218   25.3633  -75.6865 N.am      8 UNK        -0.4313 
     33 C         -73.1325   24.5449  -76.2663 C.2       8 UNK         0.5041 
     34 O         -72.1261   24.1077  -75.7070 O.2       8 UNK        -0.5577 
     35 CA        -73.4130   24.1534  -77.7244 C.3       7 UNK         0.0284 
     36 CB        -74.4600   23.0289  -77.8004 C.3       7 UNK        -0.1958 
     37 N         -73.8585   25.3072  -78.5082 N.am      7 UNK        -0.4454 
     38 C         -73.0354   26.2381  -79.0113 C.2       7 UNK         0.5089 
     39 O         -71.8083   26.1836  -78.9291 O.2       7 UNK        -0.5125 
     40 CA        -73.6819   27.4322  -79.7383 C.3       6 UNK         0.0408 
     41 CB        -73.7122   27.1812  -81.2543 C.3       6 UNK        -0.1791 
     42 N         -75.0370   27.7428  -79.2742 N.am      6 UNK        -0.4762 
     43 C         -75.3275   28.2717  -78.0765 C.2       6 UNK         0.5007 
     44 O         -74.4820   28.5396  -77.2218 O.2       6 UNK        -0.5032 
     45 CA        -76.8257   28.4573  -77.7558 C.3       5 UNK         0.0783 
     46 C46       -77.4131   29.7346  -78.4049 C.3       11 UNK        -0.0857 
     47 S47       -76.9598   31.2708  -77.5365 S.3       11 UNK        -0.2512 
     48 C48       -78.3377   31.4630  -76.3593 C.3       11 UNK         0.0225 
     49 N         -77.6375   27.2829  -78.0997 N.am      5 UNK        -0.4615 
     50 C         -77.4353   26.0428  -77.6427 C.2       4 UNK         0.5053 
     51 O         -76.4762   25.7196  -76.9408 O.2       4 UNK        -0.5105 
     52 CA        -78.4434   24.9726  -78.0875 C.3       4 UNK         0.0263 
     53 CB        -78.0016   24.3476  -79.4208 C.3       4 UNK        -0.1981 
     54 N         -78.5737   23.9171  -77.0814 N.am      4 UNK        -0.4224 
     55 C         -79.1083   24.0934  -75.8662 C.2       3 UNK         0.4895 
     56 O         -79.6332   25.1437  -75.4876 O.2       3 UNK        -0.5091 
     57 CA        -78.9908   22.9038  -74.8993 C.3       3 UNK         0.0250 
     58 CB        -77.6814   23.0046  -74.0979 C.3       3 UNK        -0.1996 
     59 N         -80.1160   22.8470  -73.9661 N.am      3 UNK        -0.4254 
     60 C         -81.3864   22.5761  -74.3017 C.2       2 UNK         0.5004 
     61 O         -81.7396   22.2397  -75.4329 O.2       2 UNK        -0.5226 
     62 CA        -82.4432   22.6888  -73.1878 C.3       2 UNK         0.0269 
     63 CB        -82.8095   21.2964  -72.6483 C.3       2 UNK        -0.1926 
     64 N         -81.9843   23.5234  -72.0757 N.am      2 UNK        -0.4687 
     65 C         -82.0147   24.8619  -72.0497 C.2       1 UNK         0.5165 
     66 O         -82.5728   25.5374  -72.9150 O.2       1 UNK        -0.5079 
     67 H67       -81.0653   22.0620  -68.0138 H         1 UNK         0.0900 
     68 H68       -81.3870   23.6528  -67.3199 H         1 UNK         0.0900 
     69 H69       -79.7268   23.0713  -67.4597 H         1 UNK         0.0900 
     70 H70       -81.9173   25.1333  -68.8873 H         1 UNK         0.2959 
     71 H71       -81.9592   26.4242  -70.6182 H         1 UNK         0.1079 
     72 H72       -79.2915   26.1966  -70.3516 H         1 UNK         0.0837 
     73 H73       -79.3909   25.4074  -71.8972 H         1 UNK         0.0837 
     74 H74       -77.6073   27.3380  -72.2457 H         1 UNK         0.0685 
     75 H75       -78.4552   27.0935  -73.7561 H         1 UNK         0.0685 
     76 H76       -78.9019   29.0040  -75.2625 H         1 UNK         0.1434 
     77 H77       -76.9707   32.7380  -74.4017 H         1 UNK         0.1329 
     78 H78       -77.0078   29.6185  -71.4625 H         1 UNK         0.1335 
     79 H79       -76.2983   31.8782  -70.8392 H         1 UNK         0.0680 
     80 H80       -76.5976   33.1992  -71.9360 H         1 UNK         0.0680 
     81 H81       -73.6783   31.2890  -70.2423 H         1 UNK         0.1032 
     82 H82       -74.4240   30.0987  -71.2796 H         1 UNK         0.1032 
     83 H83       -71.7038   31.3694  -71.8447 H         1 UNK         0.0461 
     84 H84       -70.8871   27.7632  -70.2496 H         1 UNK         0.3453 
     85 H85       -71.5634   27.8910  -71.8562 H         1 UNK         0.3453 
     86 H86       -73.3016   29.5302  -73.3990 H         1 UNK         0.2984 
     87 H87       -71.9960   29.6353  -75.9576 H         1 UNK         0.0554 
     88 H88       -70.5426   27.7557  -76.7436 H         1 UNK         0.0847 
     89 H89       -69.8848   27.5795  -75.1177 H         1 UNK         0.0847 
     90 H90       -69.5917   29.0504  -76.0363 H         1 UNK         0.0847 
     91 H91       -73.4019   27.9464  -75.8140 H         1 UNK         0.3141 
     92 H92       -73.7310   25.0836  -73.6518 H         1 UNK         0.0743 
     93 H93       -75.1713   27.0023  -72.9329 H         1 UNK         0.0784 
     94 H94       -75.4912   27.4078  -74.6150 H         1 UNK         0.0784 
     95 H95       -76.0550   25.8773  -73.9543 H         1 UNK         0.0784 
     96 H96       -74.8637   25.6083  -76.2075 H         1 UNK         0.3213 
     97 H97       -72.4832   23.7744  -78.1550 H         1 UNK         0.0855 
     98 H98       -75.4122   23.3234  -77.3595 H         1 UNK         0.0814 
     99 H99       -74.1158   22.1447  -77.2623 H         1 UNK         0.0814 
    100 H100      -74.6445   22.7276  -78.8316 H         1 UNK         0.0814 
    101 H101      -74.8546   25.4625  -78.5692 H         1 UNK         0.3105 
    102 H102      -73.0538   28.3062  -79.5521 H         1 UNK         0.0547 
    103 H103      -74.3392   26.3265  -81.5113 H         1 UNK         0.0837 
    104 H104      -74.0887   28.0503  -81.7940 H         1 UNK         0.0837 
    105 H105      -72.7108   26.9758  -81.6353 H         1 UNK         0.0837 
    106 H106      -75.7969   27.5347  -79.9063 H         1 UNK         0.3020 
    107 H107      -76.8897   28.5581  -76.6714 H         1 UNK         0.1245 
    108 H108      -78.5019   29.6780  -78.4391 H         1 UNK         0.0781 
    109 H109      -77.1025   29.8225  -79.4479 H         1 UNK         0.0781 
    110 H110      -78.5777   32.5244  -76.2791 H         1 UNK         0.0836 
    111 H111      -79.2441   30.9838  -76.7312 H         1 UNK         0.0836 
    112 H112      -78.4360   27.4524  -78.6941 H         1 UNK         0.3022 
    113 H113      -79.4212   25.4408  -78.2202 H         1 UNK         0.0747 
    114 H114      -77.9244   25.1038  -80.2033 H         1 UNK         0.0793 
    115 H115      -78.7188   23.6024  -79.7656 H         1 UNK         0.0793 
    116 H116      -77.0282   23.8625  -79.3401 H         1 UNK         0.0793 
    117 H117      -78.1351   23.0340  -77.2965 H         1 UNK         0.3047 
    118 H118      -78.9826   21.9772  -75.4774 H         1 UNK         0.0822 
    119 H119      -76.8158   23.0465  -74.7611 H         1 UNK         0.0807 
    120 H120      -77.5473   22.1422  -73.4445 H         1 UNK         0.0807 
    121 H121      -77.6574   23.9021  -73.4782 H         1 UNK         0.0807 
    122 H122      -79.9282   23.1221  -73.0132 H         1 UNK         0.2946 
    123 H123      -83.3375   23.1365  -73.6275 H         1 UNK         0.1144 
    124 H124      -83.1761   20.6519  -73.4485 H         1 UNK         0.0793 
    125 H125      -83.5967   21.3574  -71.8966 H         1 UNK         0.0793 
    126 H126      -81.9504   20.7992  -72.1959 H         1 UNK         0.0793 
    127 H127      -81.4644   23.0637  -71.3357 H         1 UNK         0.2896 
@<TRIPOS>BOND
     1    1    2 1    
     2    1   67 1    
     3    1   68 1    
     4    1   69 1    
     5    2    3 2    
     6    2    4 am   BACKBONE|DICT|INTERRES
     7    4    5 1    
     8    4   70 1    
     9    5    6 1    
    10    5   65 1    
    11    5   71 1    
    12    6    7 1    
    13    6   72 1    
    14    6   73 1    
    15    7    8 1    
    16    8    9 1    
    17    8   74 1    
    18    8   75 1    
    19    9   10 ar   
    20    9   14 ar   
    21   10   11 ar   
    22   10   76 1    
    23   11   12 ar   
    24   11   48 1    
    25   12   13 ar   
    26   12   77 1    
    27   13   14 ar   
    28   13   15 1    
    29   14   78 1    
    30   15   16 1    
    31   15   79 1    
    32   15   80 1    
    33   16   17 1    
    34   17   18 1    
    35   17   81 1    
    36   17   82 1    
    37   18   19 1    
    38   18   22 1    
    39   18   83 1    
    40   19   20 am   BACKBONE|DICT|INTERRES
    41   19   21 2    
    42   20   84 1    
    43   20   85 1    
    44   22   23 am   BACKBONE|DICT|INTERRES
    45   22   86 1    
    46   23   24 2    
    47   23   25 1    
    48   25   26 1    
    49   25   27 1    
    50   25   87 1    
    51   26   88 1    
    52   26   89 1    
    53   26   90 1    
    54   27   28 am   BACKBONE|DICT|INTERRES
    55   27   91 1    
    56   28   29 2    
    57   28   30 1    
    58   30   31 1    
    59   30   32 1    
    60   30   92 1    
    61   31   93 1    
    62   31   94 1    
    63   31   95 1    
    64   32   33 am   BACKBONE|DICT|INTERRES
    65   32   96 1    
    66   33   34 2    
    67   33   35 1    
    68   35   36 1    
    69   35   37 1    
    70   35   97 1    
    71   36   98 1    
    72   36   99 1    
    73   36  100 1    
    74   37   38 am   BACKBONE|DICT|INTERRES
    75   37  101 1    
    76   38   39 2    
    77   38   40 1    
    78   40   41 1    
    79   40   42 1    
    80   40  102 1    
    81   41  103 1    
    82   41  104 1    
    83   41  105 1    
    84   42   43 am   BACKBONE|DICT|INTERRES
    85   42  106 1    
    86   43   44 2    
    87   43   45 1    
    88   45   46 1    
    89   45   49 1    
    90   45  107 1    
    91   46   47 1    
    92   46  108 1    
    93   46  109 1    
    94   47   48 1    
    95   48  110 1    
    96   48  111 1    
    97   49   50 am   BACKBONE|DICT|INTERRES
    98   49  112 1    
    99   50   51 2    
   100   50   52 1    
   101   52   53 1    
   102   52   54 1    
   103   52  113 1    
   104   53  114 1    
   105   53  115 1    
   106   53  116 1    
   107   54   55 am   BACKBONE|DICT|INTERRES
   108   54  117 1    
   109   55   56 2    
   110   55   57 1    
   111   57   58 1    
   112   57   59 1    
   113   57  118 1    
   114   58  119 1    
   115   58  120 1    
   116   58  121 1    
   117   59   60 am   BACKBONE|DICT|INTERRES
   118   59  122 1    
   119   60   61 2    
   120   60   62 1    
   121   62   63 1    
   122   62   64 1    
   123   62  123 1    
   124   63  124 1    
   125   63  125 1    
   126   63  126 1    
   127   64   65 am   BACKBONE|DICT|INTERRES
   128   64  127 1    
   129   65   66 2    
@<TRIPOS>SUBSTRUCTURE
     1 UNK         1 GROUP             0       ****    0 ROOT    
