@<TRIPOS>MOLECULE
3R135
127   129    1
SMALL
USER_CHARGES


@<TRIPOS>ATOM
      1 CA        -84.7205   29.6188  -72.4674 C.3       0 UNK        -0.1998 
      2 C         -83.9347   29.8715  -73.7451 C.2       0 UNK         0.4909 
      3 O         -84.5318   30.0980  -74.7978 O.2       0 UNK        -0.5240 
      4 N         -82.5986   29.8310  -73.6631 N.am      1 UNK        -0.4739 
      5 CA        -81.6782   30.0338  -74.7906 C.3       1 UNK         0.0864 
      6 C6        -80.2934   30.5488  -74.3174 C.3       11 UNK        -0.0881 
      7 S7        -79.4819   29.5105  -73.0492 S.3       11 UNK        -0.2682 
      8 C8        -78.1984   28.6760  -74.0318 C.3       11 UNK         0.0289 
      9 C9        -77.2086   27.9482  -73.1347 C.ar      11 UNK        -0.0687 
     10 C10       -77.5073   26.6762  -72.6388 C.ar      11 UNK        -0.0823 
     11 C11       -76.6035   25.9958  -71.8154 C.ar      11 UNK        -0.0830 
     12 C12       -75.3849   26.6074  -71.4913 C.ar      11 UNK        -0.1021 
     13 C13       -75.0697   27.8740  -71.9915 C.ar      11 UNK        -0.0753 
     14 C14       -75.9896   28.5440  -72.8022 C.ar      11 UNK        -0.0933 
     15 C15       -73.7352   28.5246  -71.6679 C.3       11 UNK         0.0166 
     16 S16       -72.5858   28.3381  -73.0639 S.3       11 UNK        -0.2615 
     17 C17       -71.2309   29.4719  -72.5953 C.3       11 UNK        -0.0865 
     18 CA        -71.6066   30.9816  -72.6164 C.3       10 UNK         0.0862 
     19 C         -70.3562   31.8716  -72.3575 C.2       10 UNK         0.5551 
     20 N         -69.9689   32.7568  -73.2677 N.am      10 UNK        -0.7319 
     21 O         -69.7297   31.7578  -71.3068 O.2       10 UNK        -0.5018 
     22 N         -72.3931   31.3419  -73.8073 N.am      10 UNK        -0.4509 
     23 C         -73.2221   32.3861  -73.9063 C.2       10 UNK         0.4899 
     24 O         -73.3671   33.2295  -73.0214 O.2       10 UNK        -0.4839 
     25 CA        -74.0684   32.4984  -75.1891 C.3       9 UNK         0.0222 
     26 CB        -73.2964   33.2291  -76.3057 C.3       9 UNK        -0.1966 
     27 N         -74.6405   31.2229  -75.6544 N.am      9 UNK        -0.4218 
     28 C         -74.0076   30.1592  -76.1694 C.2       9 UNK         0.5020 
     29 O         -72.7903   30.1074  -76.3718 O.2       9 UNK        -0.5274 
     30 CA        -74.8802   28.9401  -76.4892 C.3       8 UNK         0.0270 
     31 CB        -75.7716   29.1781  -77.7216 C.3       8 UNK        -0.1976 
     32 N         -74.0045   27.7979  -76.7236 N.am      8 UNK        -0.4313 
     33 C         -74.2998   26.5272  -76.4463 C.2       8 UNK         0.5041 
     34 O         -75.3829   26.1497  -75.9889 O.2       8 UNK        -0.5577 
     35 CA        -73.1988   25.4974  -76.7233 C.3       7 UNK         0.0284 
     36 CB        -72.1158   25.5320  -75.6287 C.3       7 UNK        -0.1958 
     37 N         -73.8400   24.1920  -76.7465 N.am      7 UNK        -0.4454 
     38 C         -73.3879   23.0652  -77.3035 C.2       7 UNK         0.5089 
     39 O         -72.3207   22.9793  -77.9134 O.2       7 UNK        -0.5125 
     40 CA        -74.2997   21.8313  -77.1366 C.3       6 UNK         0.0408 
     41 CB        -73.5663   20.4932  -77.3687 C.3       6 UNK        -0.1791 
     42 N         -75.0152   21.8469  -75.8515 N.am      6 UNK        -0.4762 
     43 C         -74.4722   21.7836  -74.6217 C.2       6 UNK         0.5007 
     44 O         -73.2819   21.5408  -74.4195 O.2       6 UNK        -0.5032 
     45 CA        -75.3801   22.0827  -73.4060 C.3       5 UNK         0.0783 
     46 C46       -74.8409   23.3029  -72.6166 C.3       11 UNK        -0.0857 
     47 S47       -75.6099   23.4674  -70.9696 S.3       11 UNK        -0.2512 
     48 C48       -76.9951   24.6232  -71.2677 C.3       11 UNK         0.0225 
     49 N         -76.7745   22.3014  -73.7950 N.am      5 UNK        -0.4615 
     50 C         -77.6810   21.3490  -74.0371 C.2       4 UNK         0.5053 
     51 O         -77.4648   20.1453  -73.8995 O.2       4 UNK        -0.5105 
     52 CA        -79.0562   21.8249  -74.5422 C.3       4 UNK         0.0263 
     53 CB        -80.0743   21.8414  -73.3909 C.3       4 UNK        -0.1981 
     54 N         -79.0332   23.1501  -75.1754 N.am      4 UNK        -0.4224 
     55 C         -78.3753   23.4767  -76.2958 C.2       3 UNK         0.4895 
     56 O         -77.6808   22.6755  -76.9233 O.2       3 UNK        -0.5091 
     57 CA        -78.4940   24.9395  -76.7749 C.3       3 UNK         0.0250 
     58 CB        -77.8394   25.1630  -78.1517 C.3       3 UNK        -0.1996 
     59 N         -79.8745   25.4359  -76.8209 N.am      3 UNK        -0.4254 
     60 C         -80.6075   25.7860  -75.7570 C.2       2 UNK         0.5004 
     61 O         -80.2328   25.6396  -74.5915 O.2       2 UNK        -0.5226 
     62 CA        -81.9955   26.3818  -76.0249 C.3       2 UNK         0.0269 
     63 CB        -83.1009   25.4234  -75.5522 C.3       2 UNK        -0.1926 
     64 N         -82.1252   27.6568  -75.3207 N.am      2 UNK        -0.4687 
     65 C         -81.5515   28.8024  -75.7165 C.2       1 UNK         0.5165 
     66 O         -80.9333   28.9124  -76.7769 O.2       1 UNK        -0.5079 
     67 H67       -85.3715   28.7538  -72.5919 H         1 UNK         0.0900 
     68 H68       -85.3422   30.4824  -72.2326 H         1 UNK         0.0900 
     69 H69       -84.0658   29.4312  -71.6164 H         1 UNK         0.0900 
     70 H70       -82.1524   29.6376  -72.7765 H         1 UNK         0.2959 
     71 H71       -82.1032   30.8184  -75.4212 H         1 UNK         0.1079 
     72 H72       -79.6233   30.6972  -75.1664 H         1 UNK         0.0837 
     73 H73       -80.4187   31.5417  -73.8827 H         1 UNK         0.0837 
     74 H74       -78.6640   27.9719  -74.7225 H         1 UNK         0.0685 
     75 H75       -77.6759   29.4101  -74.6461 H         1 UNK         0.0685 
     76 H76       -78.4568   26.2231  -72.8863 H         1 UNK         0.1434 
     77 H77       -74.6754   26.0995  -70.8533 H         1 UNK         0.1329 
     78 H78       -75.7474   29.5270  -73.1813 H         1 UNK         0.1335 
     79 H79       -73.2938   28.0867  -70.7714 H         1 UNK         0.0680 
     80 H80       -73.8980   29.5810  -71.4537 H         1 UNK         0.0680 
     81 H81       -70.4059   29.2843  -73.2851 H         1 UNK         0.1032 
     82 H82       -70.8645   29.1856  -71.6075 H         1 UNK         0.1032 
     83 H83       -72.2531   31.1586  -71.7556 H         1 UNK         0.0461 
     84 H84       -70.4822   32.8548  -74.1288 H         1 UNK         0.3453 
     85 H85       -69.1601   33.3312  -73.0898 H         1 UNK         0.3453 
     86 H86       -72.3292   30.7119  -74.6017 H         1 UNK         0.2984 
     87 H87       -74.9285   33.1206  -74.9359 H         1 UNK         0.0554 
     88 H88       -73.9139   33.3608  -77.1940 H         1 UNK         0.0847 
     89 H89       -72.3938   32.6940  -76.6016 H         1 UNK         0.0847 
     90 H90       -72.9873   34.2220  -75.9765 H         1 UNK         0.0847 
     91 H91       -75.6397   31.1465  -75.5254 H         1 UNK         0.3141 
     92 H92       -75.5062   28.7369  -75.6193 H         1 UNK         0.0743 
     93 H93       -76.3888   28.3050  -77.9349 H         1 UNK         0.0784 
     94 H94       -76.4485   30.0189  -77.5667 H         1 UNK         0.0784 
     95 H95       -75.1781   29.3935  -78.6110 H         1 UNK         0.0784 
     96 H96       -73.0658   28.0549  -77.0058 H         1 UNK         0.3213 
     97 H97       -72.7567   25.7012  -77.7009 H         1 UNK         0.0855 
     98 H98       -72.5401   25.3484  -74.6404 H         1 UNK         0.0814 
     99 H99       -71.6209   26.5033  -75.5946 H         1 UNK         0.0814 
    100 H100      -71.3445   24.7824  -75.8058 H         1 UNK         0.0814 
    101 H101      -74.7574   24.2020  -76.3159 H         1 UNK         0.3105 
    102 H102      -75.0676   21.9190  -77.9066 H         1 UNK         0.0547 
    103 H103      -73.1811   20.4342  -78.3873 H         1 UNK         0.0837 
    104 H104      -72.7165   20.3701  -76.6972 H         1 UNK         0.0837 
    105 H105      -74.2344   19.6441  -77.2261 H         1 UNK         0.0837 
    106 H106      -76.0098   22.0366  -75.9285 H         1 UNK         0.3020 
    107 H107      -75.3277   21.2016  -72.7619 H         1 UNK         0.1245 
    108 H108      -74.9637   24.2247  -73.1887 H         1 UNK         0.0781 
    109 H109      -73.7676   23.2073  -72.4402 H         1 UNK         0.0781 
    110 H110      -77.5190   24.7741  -70.3231 H         1 UNK         0.0836 
    111 H111      -77.7115   24.1414  -71.9335 H         1 UNK         0.0836 
    112 H112      -77.0482   23.2617  -73.9371 H         1 UNK         0.3022 
    113 H113      -79.3931   21.1058  -75.2916 H         1 UNK         0.0747 
    114 H114      -81.0731   22.0937  -73.7480 H         1 UNK         0.0793 
    115 H115      -80.1402   20.8631  -72.9126 H         1 UNK         0.0793 
    116 H116      -79.8012   22.5639  -72.6207 H         1 UNK         0.0793 
    117 H117      -79.5660   23.8915  -74.7253 H         1 UNK         0.3047 
    118 H118      -77.9469   25.5462  -76.0501 H         1 UNK         0.0822 
    119 H119      -77.8761   26.2130  -78.4419 H         1 UNK         0.0807 
    120 H120      -78.3279   24.5780  -78.9317 H         1 UNK         0.0807 
    121 H121      -76.7872   24.8750  -78.1364 H         1 UNK         0.0807 
    122 H122      -80.2705   25.5543  -77.7425 H         1 UNK         0.2946 
    123 H123      -82.1192   26.5547  -77.0966 H         1 UNK         0.1144 
    124 H124      -84.0918   25.8330  -75.7495 H         1 UNK         0.0793 
    125 H125      -83.0296   25.2177  -74.4832 H         1 UNK         0.0793 
    126 H126      -83.0361   24.4669  -76.0728 H         1 UNK         0.0793 
    127 H127      -82.5781   27.6390  -74.4189 H         1 UNK         0.2896 
@<TRIPOS>BOND
     1    1    2 1    
     2    1   67 1    
     3    1   68 1    
     4    1   69 1    
     5    2    3 2    
     6    2    4 am   BACKBONE|DICT|INTERRES
     7    4    5 1    
     8    4   70 1    
     9    5    6 1    
    10    5   65 1    
    11    5   71 1    
    12    6    7 1    
    13    6   72 1    
    14    6   73 1    
    15    7    8 1    
    16    8    9 1    
    17    8   74 1    
    18    8   75 1    
    19    9   10 ar   
    20    9   14 ar   
    21   10   11 ar   
    22   10   76 1    
    23   11   12 ar   
    24   11   48 1    
    25   12   13 ar   
    26   12   77 1    
    27   13   14 ar   
    28   13   15 1    
    29   14   78 1    
    30   15   16 1    
    31   15   79 1    
    32   15   80 1    
    33   16   17 1    
    34   17   18 1    
    35   17   81 1    
    36   17   82 1    
    37   18   19 1    
    38   18   22 1    
    39   18   83 1    
    40   19   20 am   BACKBONE|DICT|INTERRES
    41   19   21 2    
    42   20   84 1    
    43   20   85 1    
    44   22   23 am   BACKBONE|DICT|INTERRES
    45   22   86 1    
    46   23   24 2    
    47   23   25 1    
    48   25   26 1    
    49   25   27 1    
    50   25   87 1    
    51   26   88 1    
    52   26   89 1    
    53   26   90 1    
    54   27   28 am   BACKBONE|DICT|INTERRES
    55   27   91 1    
    56   28   29 2    
    57   28   30 1    
    58   30   31 1    
    59   30   32 1    
    60   30   92 1    
    61   31   93 1    
    62   31   94 1    
    63   31   95 1    
    64   32   33 am   BACKBONE|DICT|INTERRES
    65   32   96 1    
    66   33   34 2    
    67   33   35 1    
    68   35   36 1    
    69   35   37 1    
    70   35   97 1    
    71   36   98 1    
    72   36   99 1    
    73   36  100 1    
    74   37   38 am   BACKBONE|DICT|INTERRES
    75   37  101 1    
    76   38   39 2    
    77   38   40 1    
    78   40   41 1    
    79   40   42 1    
    80   40  102 1    
    81   41  103 1    
    82   41  104 1    
    83   41  105 1    
    84   42   43 am   BACKBONE|DICT|INTERRES
    85   42  106 1    
    86   43   44 2    
    87   43   45 1    
    88   45   46 1    
    89   45   49 1    
    90   45  107 1    
    91   46   47 1    
    92   46  108 1    
    93   46  109 1    
    94   47   48 1    
    95   48  110 1    
    96   48  111 1    
    97   49   50 am   BACKBONE|DICT|INTERRES
    98   49  112 1    
    99   50   51 2    
   100   50   52 1    
   101   52   53 1    
   102   52   54 1    
   103   52  113 1    
   104   53  114 1    
   105   53  115 1    
   106   53  116 1    
   107   54   55 am   BACKBONE|DICT|INTERRES
   108   54  117 1    
   109   55   56 2    
   110   55   57 1    
   111   57   58 1    
   112   57   59 1    
   113   57  118 1    
   114   58  119 1    
   115   58  120 1    
   116   58  121 1    
   117   59   60 am   BACKBONE|DICT|INTERRES
   118   59  122 1    
   119   60   61 2    
   120   60   62 1    
   121   62   63 1    
   122   62   64 1    
   123   62  123 1    
   124   63  124 1    
   125   63  125 1    
   126   63  126 1    
   127   64   65 am   BACKBONE|DICT|INTERRES
   128   64  127 1    
   129   65   66 2    
@<TRIPOS>SUBSTRUCTURE
     1 UNK         1 GROUP             0       ****    0 ROOT    
