@<TRIPOS>MOLECULE
3R135
127   129    1
SMALL
USER_CHARGES


@<TRIPOS>ATOM
      1 CA        -82.6556   23.7485  -75.6370 C.3       0 UNK        -0.1998 
      2 C         -82.2859   25.1723  -75.2497 C.2       0 UNK         0.4909 
      3 O         -82.3715   26.0753  -76.0833 O.2       0 UNK        -0.5240 
      4 N         -81.8817   25.3825  -73.9890 N.am      1 UNK        -0.4739 
      5 CA        -81.4490   26.6829  -73.4653 C.3       1 UNK         0.0864 
      6 C6        -81.4021   26.6901  -71.9151 C.3       11 UNK        -0.0881 
      7 S7        -81.6870   28.3625  -71.2368 S.3       11 UNK        -0.2682 
      8 C8        -80.6129   28.3865  -69.7646 C.3       11 UNK         0.0289 
      9 C9        -79.1336   28.4171  -70.1231 C.ar      11 UNK        -0.0687 
     10 C10       -78.3274   27.3032  -69.8778 C.ar      11 UNK        -0.0823 
     11 C11       -76.9733   27.3150  -70.2261 C.ar      11 UNK        -0.0830 
     12 C12       -76.4240   28.4661  -70.7986 C.ar      11 UNK        -0.1021 
     13 C13       -77.2106   29.6050  -71.0264 C.ar      11 UNK        -0.0753 
     14 C14       -78.5673   29.5639  -70.6877 C.ar      11 UNK        -0.0933 
     15 C15       -76.6619   30.8901  -71.6540 C.3       11 UNK         0.0166 
     16 S16       -74.8548   30.9346  -71.9185 S.3       11 UNK        -0.2615 
     17 C17       -74.7425   31.8561  -73.4916 C.3       11 UNK        -0.0865 
     18 CA        -74.9877   30.9633  -74.7454 C.3       10 UNK         0.0862 
     19 C         -74.9589   31.7676  -76.0802 C.2       10 UNK         0.5551 
     20 N         -74.4705   31.2111  -77.1834 N.am      10 UNK        -0.7319 
     21 O         -75.4150   32.9074  -76.1255 O.2       10 UNK        -0.5018 
     22 N         -74.1950   29.7260  -74.7661 N.am      10 UNK        -0.4509 
     23 C         -72.8600   29.6361  -74.7862 C.2       10 UNK         0.4899 
     24 O         -72.0957   30.6000  -74.7311 O.2       10 UNK        -0.4839 
     25 CA        -72.2732   28.2200  -74.9032 C.3       9 UNK         0.0222 
     26 CB        -71.9149   27.6864  -73.5092 C.3       9 UNK        -0.1966 
     27 N         -73.1545   27.2635  -75.5851 N.am      9 UNK        -0.4218 
     28 C         -73.5378   27.3566  -76.8673 C.2       9 UNK         0.5020 
     29 O         -73.2218   28.2932  -77.6057 O.2       9 UNK        -0.5274 
     30 CA        -74.4231   26.2148  -77.4025 C.3       8 UNK         0.0270 
     31 CB        -74.6666   26.3087  -78.9232 C.3       8 UNK        -0.1976 
     32 N         -73.9175   24.8841  -77.0430 N.am      8 UNK        -0.4313 
     33 C         -72.7318   24.3408  -77.3551 C.2       8 UNK         0.5041 
     34 O         -71.8672   24.8953  -78.0365 O.2       8 UNK        -0.5577 
     35 CA        -72.4909   22.9250  -76.7958 C.3       7 UNK         0.0284 
     36 CB        -71.0747   22.3819  -77.0870 C.3       7 UNK        -0.1958 
     37 N         -72.8150   22.8400  -75.3656 N.am      7 UNK        -0.4454 
     38 C         -72.2183   23.4921  -74.3549 C.2       7 UNK         0.5089 
     39 O         -71.2284   24.2130  -74.4828 O.2       7 UNK        -0.5125 
     40 CA        -72.8668   23.3066  -72.9665 C.3       6 UNK         0.0408 
     41 CB        -72.3161   24.2665  -71.8922 C.3       6 UNK        -0.1791 
     42 N         -74.3335   23.3699  -73.0016 N.am      6 UNK        -0.4762 
     43 C         -75.0923   24.3682  -73.4827 C.2       6 UNK         0.5007 
     44 O         -74.6478   25.4109  -73.9706 O.2       6 UNK        -0.5032 
     45 CA        -76.6169   24.1411  -73.4252 C.3       5 UNK         0.0783 
     46 C46       -77.2885   25.0058  -72.3384 C.3       11 UNK        -0.0857 
     47 S47       -76.8512   24.5401  -70.6294 S.3       11 UNK        -0.2512 
     48 C48       -76.0958   26.0833  -70.0111 C.3       11 UNK         0.0225 
     49 N         -77.2707   24.3710  -74.7161 N.am      5 UNK        -0.4615 
     50 C         -76.9678   23.7788  -75.8771 C.2       4 UNK         0.5053 
     51 O         -76.0066   23.0237  -76.0311 O.2       4 UNK        -0.5105 
     52 CA        -77.8835   24.0668  -77.0723 C.3       4 UNK         0.0263 
     53 CB        -79.1310   23.1703  -77.0176 C.3       4 UNK        -0.1981 
     54 N         -78.2931   25.4733  -77.1518 N.am      4 UNK        -0.4224 
     55 C         -78.3141   26.1797  -78.2924 C.2       3 UNK         0.4895 
     56 O         -77.9750   25.7153  -79.3816 O.2       3 UNK        -0.5091 
     57 CA        -78.8164   27.6362  -78.2564 C.3       3 UNK         0.0250 
     58 CB        -80.0982   27.7826  -79.0950 C.3       3 UNK        -0.1996 
     59 N         -79.0828   28.1563  -76.9168 N.am      3 UNK        -0.4254 
     60 C         -78.1572   28.5768  -76.0455 C.2       2 UNK         0.5004 
     61 O         -76.9456   28.5581  -76.2608 O.2       2 UNK        -0.5226 
     62 CA        -78.6813   29.0928  -74.6919 C.3       2 UNK         0.0269 
     63 CB        -78.9761   30.6005  -74.7880 C.3       2 UNK        -0.1926 
     64 N         -79.8925   28.4289  -74.1923 N.am      2 UNK        -0.4687 
     65 C         -80.1020   27.1105  -74.0845 C.2       1 UNK         0.5165 
     66 O         -79.2957   26.2541  -74.4584 O.2       1 UNK        -0.5079 
     67 H67       -82.2125   23.4917  -76.5987 H         1 UNK         0.0900 
     68 H68       -82.3084   23.0241  -74.9004 H         1 UNK         0.0900 
     69 H69       -83.7374   23.6545  -75.7266 H         1 UNK         0.0900 
     70 H70       -81.8039   24.6010  -73.3544 H         1 UNK         0.2959 
     71 H71       -82.2040   27.4034  -73.7898 H         1 UNK         0.1079 
     72 H72       -80.4653   26.2717  -71.5423 H         1 UNK         0.0837 
     73 H73       -82.1918   26.0549  -71.5106 H         1 UNK         0.0837 
     74 H74       -80.8468   27.5258  -69.1359 H         1 UNK         0.0685 
     75 H75       -80.8520   29.2704  -69.1716 H         1 UNK         0.0685 
     76 H76       -78.7577   26.4151  -69.4354 H         1 UNK         0.1434 
     77 H77       -75.3784   28.4590  -71.0691 H         1 UNK         0.1329 
     78 H78       -79.1923   30.4275  -70.8710 H         1 UNK         0.1335 
     79 H79       -77.1656   31.0402  -72.6072 H         1 UNK         0.0680 
     80 H80       -76.9332   31.7407  -71.0270 H         1 UNK         0.0680 
     81 H81       -75.4550   32.6825  -73.4615 H         1 UNK         0.1032 
     82 H82       -73.7561   32.3192  -73.5446 H         1 UNK         0.1032 
     83 H83       -76.0118   30.6074  -74.6724 H         1 UNK         0.0461 
     84 H84       -74.4677   31.7375  -78.0421 H         1 UNK         0.3453 
     85 H85       -74.1050   30.2671  -77.1684 H         1 UNK         0.3453 
     86 H86       -74.7298   28.8741  -74.8595 H         1 UNK         0.2984 
     87 H87       -71.3538   28.2936  -75.4875 H         1 UNK         0.0554 
     88 H88       -71.2636   28.3818  -72.9779 H         1 UNK         0.0847 
     89 H89       -71.3835   26.7378  -73.5758 H         1 UNK         0.0847 
     90 H90       -72.8051   27.5402  -72.8960 H         1 UNK         0.0847 
     91 H91       -73.5165   26.4915  -75.0278 H         1 UNK         0.3141 
     92 H92       -75.3879   26.3207  -76.9048 H         1 UNK         0.0743 
     93 H93       -75.1936   27.2298  -79.1754 H         1 UNK         0.0784 
     94 H94       -75.2750   25.4782  -79.2801 H         1 UNK         0.0784 
     95 H95       -73.7318   26.3026  -79.4846 H         1 UNK         0.0784 
     96 H96       -74.5410   24.3199  -76.4738 H         1 UNK         0.3213 
     97 H97       -73.2004   22.2733  -77.3086 H         1 UNK         0.0855 
     98 H98       -70.2978   23.0152  -76.6581 H         1 UNK         0.0814 
     99 H99       -70.8922   22.3321  -78.1611 H         1 UNK         0.0814 
    100 H100      -70.9455   21.3753  -76.6896 H         1 UNK         0.0814 
    101 H101      -73.6450   22.3059  -75.1429 H         1 UNK         0.3105 
    102 H102      -72.6095   22.2930  -72.6557 H         1 UNK         0.0547 
    103 H103      -72.6976   24.0095  -70.9042 H         1 UNK         0.0837 
    104 H104      -72.5942   25.2992  -72.0924 H         1 UNK         0.0837 
    105 H105      -71.2277   24.2219  -71.8384 H         1 UNK         0.0837 
    106 H106      -74.8031   22.5566  -72.6271 H         1 UNK         0.3020 
    107 H107      -76.8000   23.0926  -73.1813 H         1 UNK         0.1245 
    108 H108      -78.3721   24.9001  -72.4035 H         1 UNK         0.0781 
    109 H109      -77.0852   26.0610  -72.5279 H         1 UNK         0.0781 
    110 H110      -75.1285   26.2081  -70.5010 H         1 UNK         0.0836 
    111 H111      -75.8908   25.9757  -68.9453 H         1 UNK         0.0836 
    112 H112      -78.0622   25.0100  -74.6787 H         1 UNK         0.3022 
    113 H113      -77.3117   23.7949  -77.9623 H         1 UNK         0.0747 
    114 H114      -79.7617   23.3147  -77.8949 H         1 UNK         0.0793 
    115 H115      -78.8542   22.1155  -76.9866 H         1 UNK         0.0793 
    116 H116      -79.7326   23.3770  -76.1323 H         1 UNK         0.0793 
    117 H117      -78.5956   25.9194  -76.2916 H         1 UNK         0.3047 
    118 H118      -78.0374   28.2511  -78.7127 H         1 UNK         0.0822 
    119 H119      -80.4267   28.8211  -79.1411 H         1 UNK         0.0807 
    120 H120      -80.9164   27.1882  -78.6853 H         1 UNK         0.0807 
    121 H121      -79.9374   27.4518  -80.1221 H         1 UNK         0.0807 
    122 H122      -80.0507   28.1849  -76.6289 H         1 UNK         0.2946 
    123 H123      -77.8912   28.9272  -73.9562 H         1 UNK         0.1144 
    124 H124      -79.2192   31.0225  -73.8129 H         1 UNK         0.0793 
    125 H125      -79.8177   30.8005  -75.4525 H         1 UNK         0.0793 
    126 H126      -78.1263   31.1575  -75.1816 H         1 UNK         0.0793 
    127 H127      -80.6106   29.0441  -73.8362 H         1 UNK         0.2896 
@<TRIPOS>BOND
     1    1    2 1    
     2    1   67 1    
     3    1   68 1    
     4    1   69 1    
     5    2    3 2    
     6    2    4 am   BACKBONE|DICT|INTERRES
     7    4    5 1    
     8    4   70 1    
     9    5    6 1    
    10    5   65 1    
    11    5   71 1    
    12    6    7 1    
    13    6   72 1    
    14    6   73 1    
    15    7    8 1    
    16    8    9 1    
    17    8   74 1    
    18    8   75 1    
    19    9   10 ar   
    20    9   14 ar   
    21   10   11 ar   
    22   10   76 1    
    23   11   12 ar   
    24   11   48 1    
    25   12   13 ar   
    26   12   77 1    
    27   13   14 ar   
    28   13   15 1    
    29   14   78 1    
    30   15   16 1    
    31   15   79 1    
    32   15   80 1    
    33   16   17 1    
    34   17   18 1    
    35   17   81 1    
    36   17   82 1    
    37   18   19 1    
    38   18   22 1    
    39   18   83 1    
    40   19   20 am   BACKBONE|DICT|INTERRES
    41   19   21 2    
    42   20   84 1    
    43   20   85 1    
    44   22   23 am   BACKBONE|DICT|INTERRES
    45   22   86 1    
    46   23   24 2    
    47   23   25 1    
    48   25   26 1    
    49   25   27 1    
    50   25   87 1    
    51   26   88 1    
    52   26   89 1    
    53   26   90 1    
    54   27   28 am   BACKBONE|DICT|INTERRES
    55   27   91 1    
    56   28   29 2    
    57   28   30 1    
    58   30   31 1    
    59   30   32 1    
    60   30   92 1    
    61   31   93 1    
    62   31   94 1    
    63   31   95 1    
    64   32   33 am   BACKBONE|DICT|INTERRES
    65   32   96 1    
    66   33   34 2    
    67   33   35 1    
    68   35   36 1    
    69   35   37 1    
    70   35   97 1    
    71   36   98 1    
    72   36   99 1    
    73   36  100 1    
    74   37   38 am   BACKBONE|DICT|INTERRES
    75   37  101 1    
    76   38   39 2    
    77   38   40 1    
    78   40   41 1    
    79   40   42 1    
    80   40  102 1    
    81   41  103 1    
    82   41  104 1    
    83   41  105 1    
    84   42   43 am   BACKBONE|DICT|INTERRES
    85   42  106 1    
    86   43   44 2    
    87   43   45 1    
    88   45   46 1    
    89   45   49 1    
    90   45  107 1    
    91   46   47 1    
    92   46  108 1    
    93   46  109 1    
    94   47   48 1    
    95   48  110 1    
    96   48  111 1    
    97   49   50 am   BACKBONE|DICT|INTERRES
    98   49  112 1    
    99   50   51 2    
   100   50   52 1    
   101   52   53 1    
   102   52   54 1    
   103   52  113 1    
   104   53  114 1    
   105   53  115 1    
   106   53  116 1    
   107   54   55 am   BACKBONE|DICT|INTERRES
   108   54  117 1    
   109   55   56 2    
   110   55   57 1    
   111   57   58 1    
   112   57   59 1    
   113   57  118 1    
   114   58  119 1    
   115   58  120 1    
   116   58  121 1    
   117   59   60 am   BACKBONE|DICT|INTERRES
   118   59  122 1    
   119   60   61 2    
   120   60   62 1    
   121   62   63 1    
   122   62   64 1    
   123   62  123 1    
   124   63  124 1    
   125   63  125 1    
   126   63  126 1    
   127   64   65 am   BACKBONE|DICT|INTERRES
   128   64  127 1    
   129   65   66 2    
@<TRIPOS>SUBSTRUCTURE
     1 UNK         1 GROUP             0       ****    0 ROOT    
