@<TRIPOS>MOLECULE
3R135
127   129    1
SMALL
USER_CHARGES


@<TRIPOS>ATOM
      1 CA        -76.1068   24.0882  -72.2800 C.3       0 UNK        -0.1998 
      2 C         -76.8588   25.3260  -72.7651 C.2       0 UNK         0.4909 
      3 O         -76.3873   25.9978  -73.6792 O.2       0 UNK        -0.5240 
      4 N         -78.0189   25.6687  -72.1882 N.am      1 UNK        -0.4739 
      5 CA        -78.7084   24.9815  -71.0848 C.3       1 UNK         0.0864 
      6 C6        -79.5301   25.9726  -70.2213 C.3       11 UNK        -0.0881 
      7 S7        -80.8213   26.8873  -71.1384 S.3       11 UNK        -0.2682 
      8 C8        -80.4523   28.6106  -70.6834 C.3       11 UNK         0.0289 
      9 C9        -79.4499   29.2460  -71.6349 C.ar      11 UNK        -0.0687 
     10 C10       -79.9070   29.9554  -72.7494 C.ar      11 UNK        -0.0823 
     11 C11       -79.0039   30.5787  -73.6142 C.ar      11 UNK        -0.0830 
     12 C12       -77.6327   30.4750  -73.3663 C.ar      11 UNK        -0.1021 
     13 C13       -77.1619   29.7639  -72.2596 C.ar      11 UNK        -0.0753 
     14 C14       -78.0750   29.1544  -71.3930 C.ar      11 UNK        -0.0933 
     15 C15       -75.6660   29.6618  -72.0080 C.3       11 UNK         0.0166 
     16 S16       -74.9690   31.2728  -71.5265 S.3       11 UNK        -0.2615 
     17 C17       -73.2383   30.8382  -71.1475 C.3       11 UNK        -0.0865 
     18 CA        -72.2593   31.1881  -72.2992 C.3       10 UNK         0.0862 
     19 C         -70.7907   31.0724  -71.8052 C.2       10 UNK         0.5551 
     20 N         -70.1243   32.1926  -71.5627 N.am      10 UNK        -0.7319 
     21 O         -70.2753   29.9777  -71.5905 O.2       10 UNK        -0.5018 
     22 N         -72.5207   30.3553  -73.4813 N.am      10 UNK        -0.4509 
     23 C         -71.9024   30.4396  -74.6672 C.2       10 UNK         0.4899 
     24 O         -71.0864   31.3166  -74.9548 O.2       10 UNK        -0.4839 
     25 CA        -72.2829   29.3689  -75.7132 C.3       9 UNK         0.0222 
     26 CB        -71.1902   29.1500  -76.7810 C.3       9 UNK        -0.1966 
     27 N         -72.7029   28.0948  -75.1101 N.am      9 UNK        -0.4218 
     28 C         -71.9567   27.2776  -74.3459 C.2       9 UNK         0.5020 
     29 O         -70.7597   27.4485  -74.1148 O.2       9 UNK        -0.5274 
     30 CA        -72.6686   26.0791  -73.7024 C.3       8 UNK         0.0270 
     31 CB        -73.3652   26.5099  -72.4014 C.3       8 UNK        -0.1976 
     32 N         -73.6296   25.4653  -74.6226 N.am      8 UNK        -0.4313 
     33 C         -73.3069   24.4840  -75.4776 C.2       8 UNK         0.5041 
     34 O         -72.2273   23.8901  -75.4667 O.2       8 UNK        -0.5577 
     35 CA        -74.3363   24.1383  -76.5670 C.3       7 UNK         0.0284 
     36 CB        -75.4998   23.3042  -76.0086 C.3       7 UNK        -0.1958 
     37 N         -74.8420   25.3345  -77.2473 N.am      7 UNK        -0.4454 
     38 C         -74.0752   26.1526  -77.9888 C.2       7 UNK         0.5089 
     39 O         -72.8885   25.9318  -78.2322 O.2       7 UNK        -0.5125 
     40 CA        -74.7079   27.4295  -78.5754 C.3       6 UNK         0.0408 
     41 CB        -74.8015   27.3290  -80.1069 C.3       6 UNK        -0.1791 
     42 N         -76.0310   27.7554  -78.0463 N.am      6 UNK        -0.4762 
     43 C         -76.3050   28.1485  -76.7946 C.2       6 UNK         0.5007 
     44 O         -75.4505   28.2963  -75.9197 O.2       6 UNK        -0.5032 
     45 CA        -77.7935   28.4014  -76.4750 C.3       5 UNK         0.0783 
     46 C46       -78.1287   29.8880  -76.7510 C.3       11 UNK        -0.0857 
     47 S47       -79.8260   30.3291  -76.2483 S.3       11 UNK        -0.2512 
     48 C48       -79.5146   31.3835  -74.7994 C.3       11 UNK         0.0225 
     49 N         -78.7142   27.5138  -77.2061 N.am      5 UNK        -0.4615 
     50 C         -78.6757   26.1765  -77.2406 C.2       4 UNK         0.5053 
     51 O         -77.8077   25.4973  -76.6923 O.2       4 UNK        -0.5105 
     52 CA        -79.7487   25.4910  -78.0910 C.3       4 UNK         0.0263 
     53 CB        -79.3351   25.4819  -79.5756 C.3       4 UNK        -0.1981 
     54 N         -79.9262   24.1263  -77.6069 N.am      4 UNK        -0.4224 
     55 C         -80.9689   23.3279  -77.8524 C.2       3 UNK         0.4895 
     56 O         -81.9332   23.6560  -78.5451 O.2       3 UNK        -0.5091 
     57 CA        -80.9464   21.9248  -77.2170 C.3       3 UNK         0.0250 
     58 CB        -79.8336   21.0455  -77.8247 C.3       3 UNK        -0.1996 
     59 N         -80.8981   21.9301  -75.7466 N.am      3 UNK        -0.4254 
     60 C         -79.9102   22.3641  -74.9524 C.2       2 UNK         0.5004 
     61 O         -78.8395   22.8199  -75.3589 O.2       2 UNK        -0.5226 
     62 CA        -80.1409   22.2550  -73.4434 C.3       2 UNK         0.0269 
     63 CB        -79.5917   20.9125  -72.9195 C.3       2 UNK        -0.1926 
     64 N         -79.4565   23.3811  -72.8143 N.am      2 UNK        -0.4687 
     65 C         -79.5460   23.7588  -71.5342 C.2       1 UNK         0.5165 
     66 O         -80.2483   23.1727  -70.7087 O.2       1 UNK        -0.5079 
     67 H67       -76.7256   23.1942  -72.3374 H         1 UNK         0.0900 
     68 H68       -75.7690   24.2190  -71.2527 H         1 UNK         0.0900 
     69 H69       -75.2261   23.9086  -72.8946 H         1 UNK         0.0900 
     70 H70       -78.4988   26.4891  -72.5323 H         1 UNK         0.2959 
     71 H71       -77.9505   24.5682  -70.4172 H         1 UNK         0.1079 
     72 H72       -80.0076   25.4551  -69.3870 H         1 UNK         0.0837 
     73 H73       -78.8451   26.6802  -69.7541 H         1 UNK         0.0837 
     74 H74       -81.3846   29.1772  -70.7015 H         1 UNK         0.0685 
     75 H75       -80.0939   28.6651  -69.6544 H         1 UNK         0.0685 
     76 H76       -80.9692   30.0320  -72.9390 H         1 UNK         0.1434 
     77 H77       -76.9239   30.9586  -74.0241 H         1 UNK         0.1329 
     78 H78       -77.7154   28.6131  -70.5294 H         1 UNK         0.1335 
     79 H79       -75.4569   28.9254  -71.2304 H         1 UNK         0.0680 
     80 H80       -75.1797   29.3104  -72.9185 H         1 UNK         0.0680 
     81 H81       -73.1642   29.7824  -70.8790 H         1 UNK         0.1032 
     82 H82       -72.9691   31.3907  -70.2448 H         1 UNK         0.1032 
     83 H83       -72.4380   32.2238  -72.5958 H         1 UNK         0.0461 
     84 H84       -70.5439   33.0945  -71.7276 H         1 UNK         0.3453 
     85 H85       -69.1765   32.1360  -71.2237 H         1 UNK         0.3453 
     86 H86       -73.1691   29.5968  -73.3478 H         1 UNK         0.2984 
     87 H87       -73.1622   29.7585  -76.2276 H         1 UNK         0.0554 
     88 H88       -71.4858   28.3873  -77.5014 H         1 UNK         0.0847 
     89 H89       -70.2438   28.8419  -76.3361 H         1 UNK         0.0847 
     90 H90       -71.0011   30.0669  -77.3404 H         1 UNK         0.0847 
     91 H91       -73.6885   27.8806  -75.2441 H         1 UNK         0.3141 
     92 H92       -71.9012   25.3504  -73.4319 H         1 UNK         0.0743 
     93 H93       -74.2190   27.1572  -72.5942 H         1 UNK         0.0784 
     94 H94       -73.7173   25.6462  -71.8394 H         1 UNK         0.0784 
     95 H95       -72.6797   27.0548  -71.7504 H         1 UNK         0.0784 
     96 H96       -74.5702   25.8518  -74.6429 H         1 UNK         0.3213 
     97 H97       -73.8246   23.5284  -77.3148 H         1 UNK         0.0855 
     98 H98       -76.1130   23.8746  -75.3125 H         1 UNK         0.0814 
     99 H99       -75.1354   22.4233  -75.4791 H         1 UNK         0.0814 
    100 H100      -76.1556   22.9556  -76.8066 H         1 UNK         0.0814 
    101 H101      -75.8178   25.5705  -77.0887 H         1 UNK         0.3105 
    102 H102      -74.0402   28.2577  -78.3292 H         1 UNK         0.0547 
    103 H103      -73.8231   27.1313  -80.5472 H         1 UNK         0.0837 
    104 H104      -75.4668   26.5228  -80.4183 H         1 UNK         0.0837 
    105 H105      -75.1675   28.2574  -80.5456 H         1 UNK         0.0837 
    106 H106      -76.8078   27.6484  -78.6822 H         1 UNK         0.3020 
    107 H107      -77.9217   28.1982  -75.4087 H         1 UNK         0.1245 
    108 H108      -77.4185   30.5493  -76.2527 H         1 UNK         0.0781 
    109 H109      -78.0320   30.1074  -77.8162 H         1 UNK         0.0781 
    110 H110      -78.8102   32.1746  -75.0618 H         1 UNK         0.0836 
    111 H111      -80.4430   31.8878  -74.5270 H         1 UNK         0.0836 
    112 H112      -79.4661   27.9854  -77.6882 H         1 UNK         0.3022 
    113 H113      -80.6891   26.0330  -77.9708 H         1 UNK         0.0747 
    114 H114      -80.0990   25.0201  -80.2011 H         1 UNK         0.0793 
    115 H115      -79.1850   26.4951  -79.9501 H         1 UNK         0.0793 
    116 H116      -78.4037   24.9346  -79.7279 H         1 UNK         0.0793 
    117 H117      -79.2099   23.8057  -76.9541 H         1 UNK         0.3047 
    118 H118      -81.8975   21.4553  -77.4744 H         1 UNK         0.0822 
    119 H119      -79.8791   20.0276  -77.4377 H         1 UNK         0.0807 
    120 H120      -78.8369   21.4364  -77.6181 H         1 UNK         0.0807 
    121 H121      -79.9367   20.9846  -78.9089 H         1 UNK         0.0807 
    122 H122      -81.7376   21.5861  -75.3003 H         1 UNK         0.2946 
    123 H123      -81.2098   22.3296  -73.2315 H         1 UNK         0.1144 
    124 H124      -80.0597   20.0716  -73.4331 H         1 UNK         0.0793 
    125 H125      -78.5152   20.8319  -73.0763 H         1 UNK         0.0793 
    126 H126      -79.7855   20.7825  -71.8551 H         1 UNK         0.0793 
    127 H127      -78.8760   23.9157  -73.4503 H         1 UNK         0.2896 
@<TRIPOS>BOND
     1    1    2 1    
     2    1   67 1    
     3    1   68 1    
     4    1   69 1    
     5    2    3 2    
     6    2    4 am   BACKBONE|DICT|INTERRES
     7    4    5 1    
     8    4   70 1    
     9    5    6 1    
    10    5   65 1    
    11    5   71 1    
    12    6    7 1    
    13    6   72 1    
    14    6   73 1    
    15    7    8 1    
    16    8    9 1    
    17    8   74 1    
    18    8   75 1    
    19    9   10 ar   
    20    9   14 ar   
    21   10   11 ar   
    22   10   76 1    
    23   11   12 ar   
    24   11   48 1    
    25   12   13 ar   
    26   12   77 1    
    27   13   14 ar   
    28   13   15 1    
    29   14   78 1    
    30   15   16 1    
    31   15   79 1    
    32   15   80 1    
    33   16   17 1    
    34   17   18 1    
    35   17   81 1    
    36   17   82 1    
    37   18   19 1    
    38   18   22 1    
    39   18   83 1    
    40   19   20 am   BACKBONE|DICT|INTERRES
    41   19   21 2    
    42   20   84 1    
    43   20   85 1    
    44   22   23 am   BACKBONE|DICT|INTERRES
    45   22   86 1    
    46   23   24 2    
    47   23   25 1    
    48   25   26 1    
    49   25   27 1    
    50   25   87 1    
    51   26   88 1    
    52   26   89 1    
    53   26   90 1    
    54   27   28 am   BACKBONE|DICT|INTERRES
    55   27   91 1    
    56   28   29 2    
    57   28   30 1    
    58   30   31 1    
    59   30   32 1    
    60   30   92 1    
    61   31   93 1    
    62   31   94 1    
    63   31   95 1    
    64   32   33 am   BACKBONE|DICT|INTERRES
    65   32   96 1    
    66   33   34 2    
    67   33   35 1    
    68   35   36 1    
    69   35   37 1    
    70   35   97 1    
    71   36   98 1    
    72   36   99 1    
    73   36  100 1    
    74   37   38 am   BACKBONE|DICT|INTERRES
    75   37  101 1    
    76   38   39 2    
    77   38   40 1    
    78   40   41 1    
    79   40   42 1    
    80   40  102 1    
    81   41  103 1    
    82   41  104 1    
    83   41  105 1    
    84   42   43 am   BACKBONE|DICT|INTERRES
    85   42  106 1    
    86   43   44 2    
    87   43   45 1    
    88   45   46 1    
    89   45   49 1    
    90   45  107 1    
    91   46   47 1    
    92   46  108 1    
    93   46  109 1    
    94   47   48 1    
    95   48  110 1    
    96   48  111 1    
    97   49   50 am   BACKBONE|DICT|INTERRES
    98   49  112 1    
    99   50   51 2    
   100   50   52 1    
   101   52   53 1    
   102   52   54 1    
   103   52  113 1    
   104   53  114 1    
   105   53  115 1    
   106   53  116 1    
   107   54   55 am   BACKBONE|DICT|INTERRES
   108   54  117 1    
   109   55   56 2    
   110   55   57 1    
   111   57   58 1    
   112   57   59 1    
   113   57  118 1    
   114   58  119 1    
   115   58  120 1    
   116   58  121 1    
   117   59   60 am   BACKBONE|DICT|INTERRES
   118   59  122 1    
   119   60   61 2    
   120   60   62 1    
   121   62   63 1    
   122   62   64 1    
   123   62  123 1    
   124   63  124 1    
   125   63  125 1    
   126   63  126 1    
   127   64   65 am   BACKBONE|DICT|INTERRES
   128   64  127 1    
   129   65   66 2    
@<TRIPOS>SUBSTRUCTURE
     1 UNK         1 GROUP             0       ****    0 ROOT    
