@<TRIPOS>MOLECULE
3R135
127   129    1
SMALL
USER_CHARGES


@<TRIPOS>ATOM
      1 CA        -84.6699   28.9965  -72.6439 C.3       0 UNK        -0.1998 
      2 C         -83.2875   28.5209  -73.0634 C.2       0 UNK         0.4909 
      3 O         -82.7467   29.0067  -74.0569 O.2       0 UNK        -0.5240 
      4 N         -82.7154   27.5618  -72.3251 N.am      1 UNK        -0.4739 
      5 CA        -81.3778   26.9863  -72.5327 C.3       1 UNK         0.0864 
      6 C6        -80.8007   26.4369  -71.1994 C.3       11 UNK        -0.0881 
      7 S7        -80.5952   27.7519  -69.9472 S.3       11 UNK        -0.2682 
      8 C8        -78.7937   27.7216  -69.6263 C.3       11 UNK         0.0289 
      9 C9        -77.8995   28.0657  -70.8195 C.ar      11 UNK        -0.0687 
     10 C10       -78.3353   28.8824  -71.8710 C.ar      11 UNK        -0.0823 
     11 C11       -77.5041   29.1495  -72.9630 C.ar      11 UNK        -0.0830 
     12 C12       -76.2008   28.6511  -72.9696 C.ar      11 UNK        -0.1021 
     13 C13       -75.7408   27.8551  -71.9189 C.ar      11 UNK        -0.0753 
     14 C14       -76.5949   27.5604  -70.8524 C.ar      11 UNK        -0.0933 
     15 C15       -74.3265   27.2967  -71.9606 C.3       11 UNK         0.0166 
     16 S16       -73.2240   28.0308  -70.7097 S.3       11 UNK        -0.2615 
     17 C17       -73.3702   29.8352  -70.9924 C.3       11 UNK        -0.0865 
     18 CA        -72.2045   30.4832  -71.7855 C.3       10 UNK         0.0862 
     19 C         -70.8264   30.3317  -71.0729 C.2       10 UNK         0.5551 
     20 N         -69.8173   29.7338  -71.6951 N.am      10 UNK        -0.7319 
     21 O         -70.6685   30.7816  -69.9404 O.2       10 UNK        -0.5018 
     22 N         -72.2303   30.1076  -73.2104 N.am      10 UNK        -0.4509 
     23 C         -71.6909   30.8393  -74.1956 C.2       10 UNK         0.4899 
     24 O         -71.1269   31.9183  -74.0065 O.2       10 UNK        -0.4839 
     25 CA        -71.7843   30.2670  -75.6238 C.3       9 UNK         0.0222 
     26 CB        -70.9098   31.0402  -76.6300 C.3       9 UNK        -0.1966 
     27 N         -71.4050   28.8523  -75.6559 N.am      9 UNK        -0.4218 
     28 C         -72.2609   27.8293  -75.5605 C.2       9 UNK         0.5020 
     29 O         -73.4763   27.9684  -75.4302 O.2       9 UNK        -0.5274 
     30 CA        -71.6388   26.4302  -75.5437 C.3       8 UNK         0.0270 
     31 CB        -71.1770   26.0532  -74.1231 C.3       8 UNK        -0.1976 
     32 N         -72.5966   25.4379  -76.0292 N.am      8 UNK        -0.4313 
     33 C         -72.2513   24.3010  -76.6478 C.2       8 UNK         0.5041 
     34 O         -71.0842   23.9764  -76.8759 O.2       8 UNK        -0.5577 
     35 CA        -73.3790   23.3528  -77.0889 C.3       7 UNK         0.0284 
     36 CB        -73.8505   22.4869  -75.9096 C.3       7 UNK        -0.1958 
     37 N         -74.5237   24.0396  -77.6879 N.am      7 UNK        -0.4454 
     38 C         -74.5053   24.6743  -78.8693 C.2       7 UNK         0.5089 
     39 O         -73.5131   24.7510  -79.5944 O.2       7 UNK        -0.5125 
     40 CA        -75.8185   25.3367  -79.3203 C.3       6 UNK         0.0408 
     41 CB        -76.7365   24.3207  -80.0187 C.3       6 UNK        -0.1791 
     42 N         -76.5220   25.9469  -78.1926 N.am      6 UNK        -0.4762 
     43 C         -76.1831   27.1231  -77.6439 C.2       6 UNK         0.5007 
     44 O         -75.3474   27.8843  -78.1318 O.2       6 UNK        -0.5032 
     45 CA        -76.8932   27.5150  -76.3332 C.3       5 UNK         0.0783 
     46 C46       -78.0369   28.5231  -76.6183 C.3       11 UNK        -0.0857 
     47 S47       -79.1038   28.9259  -75.1911 S.3       11 UNK        -0.2512 
     48 C48       -78.0302   29.9563  -74.1401 C.3       11 UNK         0.0225 
     49 N         -77.3379   26.3390  -75.5790 N.am      5 UNK        -0.4615 
     50 C         -76.5206   25.5067  -74.9163 C.2       4 UNK         0.5053 
     51 O         -75.2971   25.6203  -74.8876 O.2       4 UNK        -0.5105 
     52 CA        -77.1714   24.3097  -74.2042 C.3       4 UNK         0.0263 
     53 CB        -77.6077   24.7152  -72.7916 C.3       4 UNK        -0.1981 
     54 N         -78.3127   23.7659  -74.9440 N.am      4 UNK        -0.4224 
     55 C         -78.2124   23.2147  -76.1637 C.2       3 UNK         0.4895 
     56 O         -77.1418   23.0610  -76.7516 O.2       3 UNK        -0.5091 
     57 CA        -79.5139   22.8131  -76.8789 C.3       3 UNK         0.0250 
     58 CB        -79.7943   21.3156  -76.6788 C.3       3 UNK        -0.1996 
     59 N         -80.6899   23.5863  -76.4697 N.am      3 UNK        -0.4254 
     60 C         -80.8210   24.9173  -76.5667 C.2       2 UNK         0.5004 
     61 O         -79.9458   25.6591  -77.0150 O.2       2 UNK        -0.5226 
     62 CA        -82.1322   25.5350  -76.0493 C.3       2 UNK         0.0269 
     63 CB        -83.2698   24.5125  -75.8245 C.3       2 UNK        -0.1926 
     64 N         -81.9217   26.3286  -74.8346 N.am      2 UNK        -0.4687 
     65 C         -81.3775   25.9385  -73.6719 C.2       1 UNK         0.5165 
     66 O         -80.9149   24.8110  -73.4806 O.2       1 UNK        -0.5079 
     67 H67       -85.0237   28.4837  -71.7497 H         1 UNK         0.0900 
     68 H68       -84.6506   30.0659  -72.4359 H         1 UNK         0.0900 
     69 H69       -85.3871   28.8174  -73.4445 H         1 UNK         0.0900 
     70 H70       -83.2189   27.1920  -71.5314 H         1 UNK         0.2959 
     71 H71       -80.7170   27.7817  -72.8782 H         1 UNK         0.1079 
     72 H72       -81.4555   25.6662  -70.7888 H         1 UNK         0.0837 
     73 H73       -79.8382   25.9528  -71.3547 H         1 UNK         0.0837 
     74 H74       -78.5359   26.7327  -69.2436 H         1 UNK         0.0685 
     75 H75       -78.5771   28.4276  -68.8238 H         1 UNK         0.0685 
     76 H76       -79.3317   29.2997  -71.8579 H         1 UNK         0.1434 
     77 H77       -75.5403   28.8726  -73.7957 H         1 UNK         0.1329 
     78 H78       -76.2368   26.9373  -70.0442 H         1 UNK         0.1335 
     79 H79       -74.3647   26.2173  -71.8083 H         1 UNK         0.0680 
     80 H80       -73.8872   27.4421  -72.9455 H         1 UNK         0.0680 
     81 H81       -73.4432   30.3067  -70.0107 H         1 UNK         0.1032 
     82 H82       -74.3165   30.0700  -71.4783 H         1 UNK         0.1032 
     83 H83       -72.4022   31.5568  -71.7580 H         1 UNK         0.0461 
     84 H84       -68.9290   29.6472  -71.2271 H         1 UNK         0.3453 
     85 H85       -69.9373   29.3729  -72.6265 H         1 UNK         0.3453 
     86 H86       -72.6728   29.2295  -73.4403 H         1 UNK         0.2984 
     87 H87       -72.8229   30.3789  -75.9424 H         1 UNK         0.0554 
     88 H88       -71.2042   32.0894  -76.6804 H         1 UNK         0.0847 
     89 H89       -71.0085   30.6321  -77.6361 H         1 UNK         0.0847 
     90 H90       -69.8541   31.0100  -76.3573 H         1 UNK         0.0847 
     91 H91       -70.4160   28.6548  -75.7208 H         1 UNK         0.3141 
     92 H92       -70.7727   26.4485  -76.2091 H         1 UNK         0.0743 
     93 H93       -70.4994   26.8020  -73.7113 H         1 UNK         0.0784 
     94 H94       -72.0202   25.9616  -73.4379 H         1 UNK         0.0784 
     95 H95       -70.6445   25.1020  -74.1209 H         1 UNK         0.0784 
     96 H96       -73.5771   25.6501  -75.8449 H         1 UNK         0.3213 
     97 H97       -72.9668   22.6849  -77.8485 H         1 UNK         0.0855 
     98 H98       -74.2570   23.0935  -75.1007 H         1 UNK         0.0814 
     99 H99       -73.0225   21.9092  -75.4966 H         1 UNK         0.0814 
    100 H100      -74.6195   21.7780  -76.2175 H         1 UNK         0.0814 
    101 H101      -75.4071   23.9662  -77.1936 H         1 UNK         0.3105 
    102 H102      -75.5721   26.1159  -80.0449 H         1 UNK         0.0547 
    103 H103      -77.6589   24.7894  -80.3617 H         1 UNK         0.0837 
    104 H104      -77.0050   23.4920  -79.3636 H         1 UNK         0.0837 
    105 H105      -76.2454   23.8941  -80.8941 H         1 UNK         0.0837 
    106 H106      -77.2291   25.3901  -77.7318 H         1 UNK         0.3020 
    107 H107      -76.1399   28.0235  -75.7330 H         1 UNK         0.1245 
    108 H108      -78.6963   28.1290  -77.3944 H         1 UNK         0.0781 
    109 H109      -77.6300   29.4534  -77.0190 H         1 UNK         0.0781 
    110 H110      -78.6080   30.8043  -73.7694 H         1 UNK         0.0836 
    111 H111      -77.2119   30.3775  -74.7261 H         1 UNK         0.0836 
    112 H112      -78.3317   26.1483  -75.6109 H         1 UNK         0.3022 
    113 H113      -76.4270   23.5161  -74.1173 H         1 UNK         0.0747 
    114 H114      -78.1804   23.9293  -72.2989 H         1 UNK         0.0793 
    115 H115      -76.7391   24.9277  -72.1678 H         1 UNK         0.0793 
    116 H116      -78.2145   25.6197  -72.8169 H         1 UNK         0.0793 
    117 H117      -79.2312   23.8878  -74.5313 H         1 UNK         0.3047 
    118 H118      -79.3616   22.9939  -77.9451 H         1 UNK         0.0822 
    119 H119      -80.6556   20.9905  -77.2627 H         1 UNK         0.0807 
    120 H120      -79.9867   21.0771  -75.6320 H         1 UNK         0.0807 
    121 H121      -78.9428   20.7132  -76.9992 H         1 UNK         0.0807 
    122 H122      -81.4516   23.0663  -76.0586 H         1 UNK         0.2946 
    123 H123      -82.4600   26.2302  -76.8241 H         1 UNK         0.1144 
    124 H124      -83.4667   23.9338  -76.7282 H         1 UNK         0.0793 
    125 H125      -84.1997   25.0194  -75.5657 H         1 UNK         0.0793 
    126 H126      -83.0473   23.8119  -75.0189 H         1 UNK         0.0793 
    127 H127      -82.2307   27.2961  -74.8798 H         1 UNK         0.2896 
@<TRIPOS>BOND
     1    1    2 1    
     2    1   67 1    
     3    1   68 1    
     4    1   69 1    
     5    2    3 2    
     6    2    4 am   BACKBONE|DICT|INTERRES
     7    4    5 1    
     8    4   70 1    
     9    5    6 1    
    10    5   65 1    
    11    5   71 1    
    12    6    7 1    
    13    6   72 1    
    14    6   73 1    
    15    7    8 1    
    16    8    9 1    
    17    8   74 1    
    18    8   75 1    
    19    9   10 ar   
    20    9   14 ar   
    21   10   11 ar   
    22   10   76 1    
    23   11   12 ar   
    24   11   48 1    
    25   12   13 ar   
    26   12   77 1    
    27   13   14 ar   
    28   13   15 1    
    29   14   78 1    
    30   15   16 1    
    31   15   79 1    
    32   15   80 1    
    33   16   17 1    
    34   17   18 1    
    35   17   81 1    
    36   17   82 1    
    37   18   19 1    
    38   18   22 1    
    39   18   83 1    
    40   19   20 am   BACKBONE|DICT|INTERRES
    41   19   21 2    
    42   20   84 1    
    43   20   85 1    
    44   22   23 am   BACKBONE|DICT|INTERRES
    45   22   86 1    
    46   23   24 2    
    47   23   25 1    
    48   25   26 1    
    49   25   27 1    
    50   25   87 1    
    51   26   88 1    
    52   26   89 1    
    53   26   90 1    
    54   27   28 am   BACKBONE|DICT|INTERRES
    55   27   91 1    
    56   28   29 2    
    57   28   30 1    
    58   30   31 1    
    59   30   32 1    
    60   30   92 1    
    61   31   93 1    
    62   31   94 1    
    63   31   95 1    
    64   32   33 am   BACKBONE|DICT|INTERRES
    65   32   96 1    
    66   33   34 2    
    67   33   35 1    
    68   35   36 1    
    69   35   37 1    
    70   35   97 1    
    71   36   98 1    
    72   36   99 1    
    73   36  100 1    
    74   37   38 am   BACKBONE|DICT|INTERRES
    75   37  101 1    
    76   38   39 2    
    77   38   40 1    
    78   40   41 1    
    79   40   42 1    
    80   40  102 1    
    81   41  103 1    
    82   41  104 1    
    83   41  105 1    
    84   42   43 am   BACKBONE|DICT|INTERRES
    85   42  106 1    
    86   43   44 2    
    87   43   45 1    
    88   45   46 1    
    89   45   49 1    
    90   45  107 1    
    91   46   47 1    
    92   46  108 1    
    93   46  109 1    
    94   47   48 1    
    95   48  110 1    
    96   48  111 1    
    97   49   50 am   BACKBONE|DICT|INTERRES
    98   49  112 1    
    99   50   51 2    
   100   50   52 1    
   101   52   53 1    
   102   52   54 1    
   103   52  113 1    
   104   53  114 1    
   105   53  115 1    
   106   53  116 1    
   107   54   55 am   BACKBONE|DICT|INTERRES
   108   54  117 1    
   109   55   56 2    
   110   55   57 1    
   111   57   58 1    
   112   57   59 1    
   113   57  118 1    
   114   58  119 1    
   115   58  120 1    
   116   58  121 1    
   117   59   60 am   BACKBONE|DICT|INTERRES
   118   59  122 1    
   119   60   61 2    
   120   60   62 1    
   121   62   63 1    
   122   62   64 1    
   123   62  123 1    
   124   63  124 1    
   125   63  125 1    
   126   63  126 1    
   127   64   65 am   BACKBONE|DICT|INTERRES
   128   64  127 1    
   129   65   66 2    
@<TRIPOS>SUBSTRUCTURE
     1 UNK         1 GROUP             0       ****    0 ROOT    
