@<TRIPOS>MOLECULE
3R135
127   129    1
SMALL
USER_CHARGES


@<TRIPOS>ATOM
      1 CA        -83.0524   26.4888  -74.0404 C.3       0 UNK        -0.1998 
      2 C         -81.9947   26.7110  -75.1101 C.2       0 UNK         0.4909 
      3 O         -82.2492   26.4310  -76.2815 O.2       0 UNK        -0.5240 
      4 N         -80.8136   27.2040  -74.7093 N.am      1 UNK        -0.4739 
      5 CA        -79.6497   27.5191  -75.5494 C.3       1 UNK         0.0864 
      6 C6        -78.4704   28.0612  -74.7024 C.3       11 UNK        -0.0881 
      7 S7        -78.8651   29.6454  -73.8877 S.3       11 UNK        -0.2682 
      8 C8        -78.7987   29.2093  -72.1174 C.3       11 UNK         0.0289 
      9 C9        -77.4221   28.7256  -71.6764 C.ar      11 UNK        -0.0687 
     10 C10       -77.2741   27.4581  -71.1042 C.ar      11 UNK        -0.0823 
     11 C11       -76.0138   26.9975  -70.7063 C.ar      11 UNK        -0.0830 
     12 C12       -74.9007   27.8272  -70.8641 C.ar      11 UNK        -0.1021 
     13 C13       -75.0362   29.0996  -71.4242 C.ar      11 UNK        -0.0753 
     14 C14       -76.2980   29.5439  -71.8288 C.ar      11 UNK        -0.0933 
     15 C15       -73.8132   29.9798  -71.6161 C.3       11 UNK         0.0166 
     16 S16       -73.6972   31.2648  -70.3349 S.3       11 UNK        -0.2615 
     17 C17       -71.9238   31.6975  -70.4022 C.3       11 UNK        -0.0865 
     18 CA        -71.5942   32.8558  -71.3919 C.3       10 UNK         0.0862 
     19 C         -70.1646   33.4432  -71.1731 C.2       10 UNK         0.5551 
     20 N         -69.4795   33.9143  -72.2074 N.am      10 UNK        -0.7319 
     21 O         -69.6789   33.5065  -70.0463 O.2       10 UNK        -0.5018 
     22 N         -71.9138   32.5286  -72.7962 N.am      10 UNK        -0.4509 
     23 C         -71.3588   31.5484  -73.5209 C.2       10 UNK         0.4899 
     24 O         -70.4838   30.7857  -73.1070 O.2       10 UNK        -0.4839 
     25 CA        -71.8595   31.4006  -74.9620 C.3       9 UNK         0.0222 
     26 CB        -70.8837   32.0739  -75.9401 C.3       9 UNK        -0.1966 
     27 N         -71.9620   29.9779  -75.2854 N.am      9 UNK        -0.4218 
     28 C         -73.1035   29.2814  -75.3122 C.2       9 UNK         0.5020 
     29 O         -74.2202   29.7774  -75.1430 O.2       9 UNK        -0.5274 
     30 CA        -72.9663   27.7620  -75.5241 C.3       8 UNK         0.0270 
     31 CB        -72.8250   27.0485  -74.1686 C.3       8 UNK        -0.1976 
     32 N         -74.1151   27.1984  -76.2355 N.am      8 UNK        -0.4313 
     33 C         -74.4766   27.5150  -77.4860 C.2       8 UNK         0.5041 
     34 O         -73.8029   28.2259  -78.2355 O.2       8 UNK        -0.5577 
     35 CA        -75.8260   26.9461  -77.9624 C.3       7 UNK         0.0284 
     36 CB        -76.0906   27.1830  -79.4653 C.3       7 UNK        -0.1958 
     37 N         -76.0114   25.5339  -77.6045 N.am      7 UNK        -0.4454 
     38 C         -75.2931   24.4864  -78.0372 C.2       7 UNK         0.5089 
     39 O         -74.3366   24.5756  -78.8083 O.2       7 UNK        -0.5125 
     40 CA        -75.7433   23.1006  -77.5279 C.3       6 UNK         0.0408 
     41 CB        -74.6506   22.0224  -77.6883 C.3       6 UNK        -0.1791 
     42 N         -76.2569   23.1157  -76.1511 N.am      6 UNK        -0.4762 
     43 C         -75.5942   23.4975  -75.0470 C.2       6 UNK         0.5007 
     44 O         -74.4414   23.9299  -75.0654 O.2       6 UNK        -0.5032 
     45 CA        -76.3455   23.3945  -73.7058 C.3       5 UNK         0.0783 
     46 C46       -75.8610   24.4611  -72.6838 C.3       11 UNK        -0.0857 
     47 S47       -76.6550   24.2901  -71.0484 S.3       11 UNK        -0.2512 
     48 C48       -75.8408   25.6118  -70.0938 C.3       11 UNK         0.0225 
     49 N         -77.7978   23.4539  -73.9162 N.am      5 UNK        -0.4615 
     50 C         -78.6771   22.6012  -73.3768 C.2       4 UNK         0.5053 
     51 O         -78.3669   21.5425  -72.8299 O.2       4 UNK        -0.5105 
     52 CA        -80.1492   23.0249  -73.4102 C.3       4 UNK         0.0263 
     53 CB        -80.3595   24.3115  -72.5907 C.3       4 UNK        -0.1981 
     54 N         -80.6274   23.2245  -74.7780 N.am      4 UNK        -0.4224 
     55 C         -81.3743   22.3385  -75.4530 C.2       3 UNK         0.4895 
     56 O         -81.6877   21.2313  -75.0128 O.2       3 UNK        -0.5091 
     57 CA        -81.8958   22.7518  -76.8408 C.3       3 UNK         0.0250 
     58 CB        -83.3954   23.0856  -76.7717 C.3       3 UNK        -0.1996 
     59 N         -81.1827   23.8965  -77.4093 N.am      3 UNK        -0.4254 
     60 C         -80.0231   23.8045  -78.0739 C.2       2 UNK         0.5004 
     61 O         -79.4298   22.7463  -78.2800 O.2       2 UNK        -0.5226 
     62 CA        -79.4034   25.1217  -78.5681 C.3       2 UNK         0.0269 
     63 CB        -79.9529   25.4852  -79.9564 C.3       2 UNK        -0.1926 
     64 N         -79.6148   26.2479  -77.6518 N.am      2 UNK        -0.4687 
     65 C         -79.1991   26.3009  -76.3790 C.2       1 UNK         0.5165 
     66 O         -78.5140   25.4222  -75.8485 O.2       1 UNK        -0.5079 
     67 H67       -83.9305   27.0966  -74.2533 H         1 UNK         0.0900 
     68 H68       -83.3569   25.4433  -74.0258 H         1 UNK         0.0900 
     69 H69       -82.6922   26.7515  -73.0460 H         1 UNK         0.0900 
     70 H70       -80.6934   27.4267  -73.7326 H         1 UNK         0.2959 
     71 H71       -79.9539   28.3044  -76.2449 H         1 UNK         0.1079 
     72 H72       -77.5939   28.2392  -75.3278 H         1 UNK         0.0837 
     73 H73       -78.1602   27.3243  -73.9591 H         1 UNK         0.0837 
     74 H74       -79.5619   28.4583  -71.9093 H         1 UNK         0.0685 
     75 H75       -79.0660   30.0888  -71.5301 H         1 UNK         0.0685 
     76 H76       -78.1382   26.8206  -70.9768 H         1 UNK         0.1434 
     77 H77       -73.9236   27.4822  -70.5547 H         1 UNK         0.1329 
     78 H78       -76.4039   30.5252  -72.2707 H         1 UNK         0.1335 
     79 H79       -72.9078   29.3716  -71.6236 H         1 UNK         0.0680 
     80 H80       -73.8731   30.4619  -72.5902 H         1 UNK         0.0680 
     81 H81       -71.6494   31.9841  -69.3856 H         1 UNK         0.1032 
     82 H82       -71.3274   30.8109  -70.6195 H         1 UNK         0.1032 
     83 H83       -72.2570   33.6836  -71.1382 H         1 UNK         0.0461 
     84 H84       -68.5621   34.3027  -72.0569 H         1 UNK         0.3453 
     85 H85       -69.8697   33.8817  -73.1348 H         1 UNK         0.3453 
     86 H86       -72.6112   33.1174  -73.2279 H         1 UNK         0.2984 
     87 H87       -72.8328   31.8860  -75.0574 H         1 UNK         0.0554 
     88 H88       -70.8032   33.1427  -75.7387 H         1 UNK         0.0847 
     89 H89       -71.2197   31.9645  -76.9712 H         1 UNK         0.0847 
     90 H90       -69.8805   31.6520  -75.8693 H         1 UNK         0.0847 
     91 H91       -71.0854   29.4800  -75.3561 H         1 UNK         0.3141 
     92 H92       -72.0740   27.5679  -76.1226 H         1 UNK         0.0743 
     93 H93       -71.9750   27.4362  -73.6055 H         1 UNK         0.0784 
     94 H94       -72.6657   25.9777  -74.2977 H         1 UNK         0.0784 
     95 H95       -73.7134   27.1822  -73.5499 H         1 UNK         0.0784 
     96 H96       -74.7092   26.5779  -75.7063 H         1 UNK         0.3213 
     97 H97       -76.5869   27.5029  -77.4161 H         1 UNK         0.0855 
     98 H98       -75.3393   26.7024  -80.0920 H         1 UNK         0.0814 
     99 H99       -76.0718   28.2479  -79.7001 H         1 UNK         0.0814 
    100 H100      -77.0676   26.8065  -79.7637 H         1 UNK         0.0814 
    101 H101      -76.7593   25.3383  -76.9471 H         1 UNK         0.3105 
    102 H102      -76.5834   22.8093  -78.1598 H         1 UNK         0.0547 
    103 H103      -74.9985   21.0494  -77.3420 H         1 UNK         0.0837 
    104 H104      -73.7479   22.2747  -77.1308 H         1 UNK         0.0837 
    105 H105      -74.3639   21.9074  -78.7343 H         1 UNK         0.0837 
    106 H106      -77.2110   22.8012  -76.0345 H         1 UNK         0.3020 
    107 H107      -76.0715   22.4139  -73.3102 H         1 UNK         0.1245 
    108 H108      -76.0576   25.4643  -73.0667 H         1 UNK         0.0781 
    109 H109      -74.7816   24.3938  -72.5335 H         1 UNK         0.0781 
    110 H110      -74.7837   25.3618  -69.9920 H         1 UNK         0.0836 
    111 H111      -76.2530   25.6212  -69.0842 H         1 UNK         0.0836 
    112 H112      -78.1326   24.2682  -74.4243 H         1 UNK         0.3022 
    113 H113      -80.7270   22.2366  -72.9222 H         1 UNK         0.0747 
    114 H114      -81.4170   24.5619  -72.5161 H         1 UNK         0.0793 
    115 H115      -79.9878   24.1871  -71.5725 H         1 UNK         0.0793 
    116 H116      -79.8363   25.1651  -73.0214 H         1 UNK         0.0793 
    117 H117      -80.3573   24.0802  -75.2420 H         1 UNK         0.3047 
    118 H118      -81.7727   21.8920  -77.5033 H         1 UNK         0.0822 
    119 H119      -83.7943   23.3211  -77.7585 H         1 UNK         0.0807 
    120 H120      -83.5912   23.9374  -76.1199 H         1 UNK         0.0807 
    121 H121      -83.9676   22.2409  -76.3855 H         1 UNK         0.0807 
    122 H122      -81.5877   24.8155  -77.2500 H         1 UNK         0.2946 
    123 H123      -78.3331   24.9511  -78.6681 H         1 UNK         0.1144 
    124 H124      -79.4654   26.3731  -80.3588 H         1 UNK         0.0793 
    125 H125      -81.0265   25.6759  -79.9287 H         1 UNK         0.0793 
    126 H126      -79.7839   24.6750  -80.6672 H         1 UNK         0.0793 
    127 H127      -80.2167   26.9866  -77.9883 H         1 UNK         0.2896 
@<TRIPOS>BOND
     1    1    2 1    
     2    1   67 1    
     3    1   68 1    
     4    1   69 1    
     5    2    3 2    
     6    2    4 am   BACKBONE|DICT|INTERRES
     7    4    5 1    
     8    4   70 1    
     9    5    6 1    
    10    5   65 1    
    11    5   71 1    
    12    6    7 1    
    13    6   72 1    
    14    6   73 1    
    15    7    8 1    
    16    8    9 1    
    17    8   74 1    
    18    8   75 1    
    19    9   10 ar   
    20    9   14 ar   
    21   10   11 ar   
    22   10   76 1    
    23   11   12 ar   
    24   11   48 1    
    25   12   13 ar   
    26   12   77 1    
    27   13   14 ar   
    28   13   15 1    
    29   14   78 1    
    30   15   16 1    
    31   15   79 1    
    32   15   80 1    
    33   16   17 1    
    34   17   18 1    
    35   17   81 1    
    36   17   82 1    
    37   18   19 1    
    38   18   22 1    
    39   18   83 1    
    40   19   20 am   BACKBONE|DICT|INTERRES
    41   19   21 2    
    42   20   84 1    
    43   20   85 1    
    44   22   23 am   BACKBONE|DICT|INTERRES
    45   22   86 1    
    46   23   24 2    
    47   23   25 1    
    48   25   26 1    
    49   25   27 1    
    50   25   87 1    
    51   26   88 1    
    52   26   89 1    
    53   26   90 1    
    54   27   28 am   BACKBONE|DICT|INTERRES
    55   27   91 1    
    56   28   29 2    
    57   28   30 1    
    58   30   31 1    
    59   30   32 1    
    60   30   92 1    
    61   31   93 1    
    62   31   94 1    
    63   31   95 1    
    64   32   33 am   BACKBONE|DICT|INTERRES
    65   32   96 1    
    66   33   34 2    
    67   33   35 1    
    68   35   36 1    
    69   35   37 1    
    70   35   97 1    
    71   36   98 1    
    72   36   99 1    
    73   36  100 1    
    74   37   38 am   BACKBONE|DICT|INTERRES
    75   37  101 1    
    76   38   39 2    
    77   38   40 1    
    78   40   41 1    
    79   40   42 1    
    80   40  102 1    
    81   41  103 1    
    82   41  104 1    
    83   41  105 1    
    84   42   43 am   BACKBONE|DICT|INTERRES
    85   42  106 1    
    86   43   44 2    
    87   43   45 1    
    88   45   46 1    
    89   45   49 1    
    90   45  107 1    
    91   46   47 1    
    92   46  108 1    
    93   46  109 1    
    94   47   48 1    
    95   48  110 1    
    96   48  111 1    
    97   49   50 am   BACKBONE|DICT|INTERRES
    98   49  112 1    
    99   50   51 2    
   100   50   52 1    
   101   52   53 1    
   102   52   54 1    
   103   52  113 1    
   104   53  114 1    
   105   53  115 1    
   106   53  116 1    
   107   54   55 am   BACKBONE|DICT|INTERRES
   108   54  117 1    
   109   55   56 2    
   110   55   57 1    
   111   57   58 1    
   112   57   59 1    
   113   57  118 1    
   114   58  119 1    
   115   58  120 1    
   116   58  121 1    
   117   59   60 am   BACKBONE|DICT|INTERRES
   118   59  122 1    
   119   60   61 2    
   120   60   62 1    
   121   62   63 1    
   122   62   64 1    
   123   62  123 1    
   124   63  124 1    
   125   63  125 1    
   126   63  126 1    
   127   64   65 am   BACKBONE|DICT|INTERRES
   128   64  127 1    
   129   65   66 2    
@<TRIPOS>SUBSTRUCTURE
     1 UNK         1 GROUP             0       ****    0 ROOT    
