@<TRIPOS>MOLECULE
3R135
127   129    1
SMALL
USER_CHARGES


@<TRIPOS>ATOM
      1 CA        -84.6657   25.0556  -67.9656 C.3       0 UNK        -0.1998 
      2 C         -83.5240   25.7299  -68.7116 C.2       0 UNK         0.4909 
      3 O         -82.8155   26.5545  -68.1333 O.2       0 UNK        -0.5240 
      4 N         -83.3409   25.3889  -69.9905 N.am      1 UNK        -0.4739 
      5 CA        -82.3211   25.9415  -70.8782 C.3       1 UNK         0.0864 
      6 C6        -80.9333   25.2849  -70.6255 C.3       11 UNK        -0.0881 
      7 S7        -79.6166   25.7228  -71.8108 S.3       11 UNK        -0.2682 
      8 C8        -79.1727   27.4039  -71.2763 C.3       11 UNK         0.0289 
      9 C9        -78.3565   28.1153  -72.3461 C.ar      11 UNK        -0.0687 
     10 C10       -78.9463   28.4408  -73.5710 C.ar      11 UNK        -0.0823 
     11 C11       -78.2140   29.0888  -74.5679 C.ar      11 UNK        -0.0830 
     12 C12       -76.8773   29.4236  -74.3304 C.ar      11 UNK        -0.1021 
     13 C13       -76.2789   29.1163  -73.1034 C.ar      11 UNK        -0.0753 
     14 C14       -77.0210   28.4582  -72.1169 C.ar      11 UNK        -0.0933 
     15 C15       -74.8269   29.4847  -72.8463 C.3       11 UNK         0.0166 
     16 S16       -74.6456   31.2516  -72.4669 S.3       11 UNK        -0.2615 
     17 C17       -72.9176   31.3207  -71.8823 C.3       11 UNK        -0.0865 
     18 CA        -71.9081   31.5433  -73.0371 C.3       10 UNK         0.0862 
     19 C         -70.5406   32.0395  -72.4950 C.2       10 UNK         0.5551 
     20 N         -70.3596   33.3478  -72.3804 N.am      10 UNK        -0.7319 
     21 O         -69.6628   31.2547  -72.1402 O.2       10 UNK        -0.5018 
     22 N         -71.7499   30.3269  -73.8442 N.am      10 UNK        -0.4509 
     23 C         -71.3115   30.2956  -75.1046 C.2       10 UNK         0.4899 
     24 O         -71.0907   31.3078  -75.7708 O.2       10 UNK        -0.4839 
     25 CA        -71.0758   28.9195  -75.7560 C.3       9 UNK         0.0222 
     26 CB        -69.5817   28.5459  -75.7118 C.3       9 UNK        -0.1966 
     27 N         -71.9053   27.8052  -75.2711 N.am      9 UNK        -0.4218 
     28 C         -71.9122   27.1960  -74.0753 C.2       9 UNK         0.5020 
     29 O         -71.3123   27.6168  -73.0859 O.2       9 UNK        -0.5274 
     30 CA        -72.7107   25.8821  -73.9645 C.3       8 UNK         0.0270 
     31 CB        -74.1632   26.1395  -73.5375 C.3       8 UNK        -0.1976 
     32 N         -72.7068   25.1006  -75.2032 N.am      8 UNK        -0.4313 
     33 C         -71.6272   24.5104  -75.7370 C.2       8 UNK         0.5041 
     34 O         -70.5107   24.5154  -75.2172 O.2       8 UNK        -0.5577 
     35 CA        -71.8251   23.8070  -77.0876 C.3       7 UNK         0.0284 
     36 CB        -72.4013   22.3953  -76.8908 C.3       7 UNK        -0.1958 
     37 N         -72.7025   24.5840  -77.9650 N.am      7 UNK        -0.4454 
     38 C         -72.2910   25.6101  -78.7228 C.2       7 UNK         0.5089 
     39 O         -71.1155   25.9628  -78.8199 O.2       7 UNK        -0.5125 
     40 CA        -73.3704   26.3822  -79.5038 C.3       6 UNK         0.0408 
     41 CB        -73.5332   25.7954  -80.9148 C.3       6 UNK        -0.1791 
     42 N         -74.6745   26.4068  -78.8350 N.am      6 UNK        -0.4762 
     43 C         -74.9308   27.0567  -77.6900 C.2       6 UNK         0.5007 
     44 O         -74.0908   27.7109  -77.0740 O.2       6 UNK        -0.5032 
     45 CA        -76.3539   26.9181  -77.1144 C.3       5 UNK         0.0783 
     46 C46       -77.2737   28.0072  -77.7159 C.3       11 UNK        -0.0857 
     47 S47       -78.9542   27.9988  -77.0046 S.3       11 UNK        -0.2512 
     48 C48       -78.8868   29.4354  -75.8874 C.3       11 UNK         0.0225 
     49 N         -76.9138   25.5685  -77.2682 N.am      5 UNK        -0.4615 
     50 C         -76.3610   24.4347  -76.8141 C.2       4 UNK         0.5053 
     51 O         -75.2363   24.3828  -76.3126 O.2       4 UNK        -0.5105 
     52 CA        -77.1926   23.1440  -76.9674 C.3       4 UNK         0.0263 
     53 CB        -76.7381   22.0337  -75.9959 C.3       4 UNK        -0.1981 
     54 N         -78.6460   23.3507  -76.8662 N.am      4 UNK        -0.4224 
     55 C         -79.3158   23.8736  -75.8276 C.2       3 UNK         0.4895 
     56 O         -78.7879   24.2917  -74.7966 O.2       3 UNK        -0.5091 
     57 CA        -80.8409   23.9073  -75.9575 C.3       3 UNK         0.0250 
     58 CB        -81.4645   22.5990  -75.4380 C.3       3 UNK        -0.1996 
     59 N         -81.3654   25.0403  -75.1994 N.am      3 UNK        -0.4254 
     60 C         -82.5002   25.6895  -75.4866 C.2       2 UNK         0.5004 
     61 O         -83.2376   25.3777  -76.4244 O.2       2 UNK        -0.5226 
     62 CA        -82.8718   26.8924  -74.5933 C.3       2 UNK         0.0269 
     63 CB        -84.3668   27.2669  -74.6911 C.3       2 UNK        -0.1926 
     64 N         -82.4743   26.7502  -73.1849 N.am      2 UNK        -0.4687 
     65 C         -82.8497   25.7958  -72.3189 C.2       1 UNK         0.5165 
     66 O         -83.5884   24.8482  -72.6029 O.2       1 UNK        -0.5079 
     67 H67       -84.2809   24.5127  -67.1027 H         1 UNK         0.0900 
     68 H68       -85.3749   25.8027  -67.6102 H         1 UNK         0.0900 
     69 H69       -85.2045   24.3497  -68.5975 H         1 UNK         0.0900 
     70 H70       -83.9656   24.7364  -70.4501 H         1 UNK         0.2959 
     71 H71       -82.2448   27.0111  -70.6705 H         1 UNK         0.1079 
     72 H72       -81.0342   24.1983  -70.6484 H         1 UNK         0.0837 
     73 H73       -80.5848   25.5273  -69.6203 H         1 UNK         0.0837 
     74 H74       -78.6236   27.3465  -70.3352 H         1 UNK         0.0685 
     75 H75       -80.0735   27.9847  -71.0762 H         1 UNK         0.0685 
     76 H76       -79.9770   28.1775  -73.7564 H         1 UNK         0.1434 
     77 H77       -76.3025   29.9304  -75.0937 H         1 UNK         0.1329 
     78 H78       -76.5589   28.2148  -71.1700 H         1 UNK         0.1335 
     79 H79       -74.4246   28.8970  -72.0203 H         1 UNK         0.0680 
     80 H80       -74.2342   29.2399  -73.7276 H         1 UNK         0.0680 
     81 H81       -72.6720   30.4231  -71.3116 H         1 UNK         0.1032 
     82 H82       -72.8676   32.1459  -71.1689 H         1 UNK         0.1032 
     83 H83       -72.3067   32.3278  -73.6844 H         1 UNK         0.0461 
     84 H84       -71.0765   33.9997  -72.6596 H         1 UNK         0.3453 
     85 H85       -69.4848   33.6920  -72.0162 H         1 UNK         0.3453 
     86 H86       -71.7797   29.4419  -73.3475 H         1 UNK         0.2984 
     87 H87       -71.3498   29.0333  -76.8061 H         1 UNK         0.0554 
     88 H88       -68.9707   29.3226  -76.1737 H         1 UNK         0.0847 
     89 H89       -69.3900   27.6182  -76.2519 H         1 UNK         0.0847 
     90 H90       -69.2253   28.4191  -74.6890 H         1 UNK         0.0847 
     91 H91       -72.5634   27.4576  -75.9647 H         1 UNK         0.3141 
     92 H92       -72.2347   25.2741  -73.1924 H         1 UNK         0.0743 
     93 H93       -74.2012   26.6108  -72.5557 H         1 UNK         0.0784 
     94 H94       -74.6827   26.7891  -74.2417 H         1 UNK         0.0784 
     95 H95       -74.7283   25.2096  -73.4666 H         1 UNK         0.0784 
     96 H96       -73.6047   24.9716  -75.6662 H         1 UNK         0.3213 
     97 H97       -70.8457   23.7063  -77.5611 H         1 UNK         0.0855 
     98 H98       -73.3702   22.4167  -76.3921 H         1 UNK         0.0814 
     99 H99       -71.7350   21.7875  -76.2774 H         1 UNK         0.0814 
    100 H100      -72.5245   21.8801  -77.8434 H         1 UNK         0.0814 
    101 H101      -73.6951   24.4016  -77.8938 H         1 UNK         0.3105 
    102 H102      -73.0266   27.4141  -79.6038 H         1 UNK         0.0547 
    103 H103      -72.5806   25.7900  -81.4466 H         1 UNK         0.0837 
    104 H104      -73.8956   24.7671  -80.8871 H         1 UNK         0.0837 
    105 H105      -74.2307   26.3829  -81.5119 H         1 UNK         0.0837 
    106 H106      -75.4237   25.8860  -79.2686 H         1 UNK         0.3020 
    107 H107      -76.2765   27.0990  -76.0404 H         1 UNK         0.1245 
    108 H108      -77.3714   27.8688  -78.7944 H         1 UNK         0.0781 
    109 H109      -76.8331   28.9972  -77.5825 H         1 UNK         0.0781 
    110 H110      -79.9063   29.7726  -75.6943 H         1 UNK         0.0836 
    111 H111      -78.3852   30.2728  -76.3746 H         1 UNK         0.0836 
    112 H112      -77.8459   25.5240  -77.6527 H         1 UNK         0.3022 
    113 H113      -77.0051   22.7884  -77.9815 H         1 UNK         0.0747 
    114 H114      -77.3334   21.1291  -76.1191 H         1 UNK         0.0793 
    115 H115      -76.8202   22.3506  -74.9555 H         1 UNK         0.0793 
    116 H116      -75.6977   21.7592  -76.1706 H         1 UNK         0.0793 
    117 H117      -79.1811   23.0393  -77.6658 H         1 UNK         0.3047 
    118 H118      -81.0908   24.0341  -77.0134 H         1 UNK         0.0822 
    119 H119      -82.5478   22.5992  -75.5607 H         1 UNK         0.0807 
    120 H120      -81.2491   22.4466  -74.3794 H         1 UNK         0.0807 
    121 H121      -81.0771   21.7352  -75.9796 H         1 UNK         0.0807 
    122 H122      -80.7765   25.3512  -74.4355 H         1 UNK         0.2946 
    123 H123      -82.3007   27.7333  -74.9907 H         1 UNK         0.1144 
    124 H124      -84.6444   27.5136  -75.7168 H         1 UNK         0.0793 
    125 H125      -84.5994   28.1378  -74.0783 H         1 UNK         0.0793 
    126 H126      -85.0102   26.4476  -74.3685 H         1 UNK         0.0793 
    127 H127      -81.8593   27.4725  -72.8396 H         1 UNK         0.2896 
@<TRIPOS>BOND
     1    1    2 1    
     2    1   67 1    
     3    1   68 1    
     4    1   69 1    
     5    2    3 2    
     6    2    4 am   BACKBONE|DICT|INTERRES
     7    4    5 1    
     8    4   70 1    
     9    5    6 1    
    10    5   65 1    
    11    5   71 1    
    12    6    7 1    
    13    6   72 1    
    14    6   73 1    
    15    7    8 1    
    16    8    9 1    
    17    8   74 1    
    18    8   75 1    
    19    9   10 ar   
    20    9   14 ar   
    21   10   11 ar   
    22   10   76 1    
    23   11   12 ar   
    24   11   48 1    
    25   12   13 ar   
    26   12   77 1    
    27   13   14 ar   
    28   13   15 1    
    29   14   78 1    
    30   15   16 1    
    31   15   79 1    
    32   15   80 1    
    33   16   17 1    
    34   17   18 1    
    35   17   81 1    
    36   17   82 1    
    37   18   19 1    
    38   18   22 1    
    39   18   83 1    
    40   19   20 am   BACKBONE|DICT|INTERRES
    41   19   21 2    
    42   20   84 1    
    43   20   85 1    
    44   22   23 am   BACKBONE|DICT|INTERRES
    45   22   86 1    
    46   23   24 2    
    47   23   25 1    
    48   25   26 1    
    49   25   27 1    
    50   25   87 1    
    51   26   88 1    
    52   26   89 1    
    53   26   90 1    
    54   27   28 am   BACKBONE|DICT|INTERRES
    55   27   91 1    
    56   28   29 2    
    57   28   30 1    
    58   30   31 1    
    59   30   32 1    
    60   30   92 1    
    61   31   93 1    
    62   31   94 1    
    63   31   95 1    
    64   32   33 am   BACKBONE|DICT|INTERRES
    65   32   96 1    
    66   33   34 2    
    67   33   35 1    
    68   35   36 1    
    69   35   37 1    
    70   35   97 1    
    71   36   98 1    
    72   36   99 1    
    73   36  100 1    
    74   37   38 am   BACKBONE|DICT|INTERRES
    75   37  101 1    
    76   38   39 2    
    77   38   40 1    
    78   40   41 1    
    79   40   42 1    
    80   40  102 1    
    81   41  103 1    
    82   41  104 1    
    83   41  105 1    
    84   42   43 am   BACKBONE|DICT|INTERRES
    85   42  106 1    
    86   43   44 2    
    87   43   45 1    
    88   45   46 1    
    89   45   49 1    
    90   45  107 1    
    91   46   47 1    
    92   46  108 1    
    93   46  109 1    
    94   47   48 1    
    95   48  110 1    
    96   48  111 1    
    97   49   50 am   BACKBONE|DICT|INTERRES
    98   49  112 1    
    99   50   51 2    
   100   50   52 1    
   101   52   53 1    
   102   52   54 1    
   103   52  113 1    
   104   53  114 1    
   105   53  115 1    
   106   53  116 1    
   107   54   55 am   BACKBONE|DICT|INTERRES
   108   54  117 1    
   109   55   56 2    
   110   55   57 1    
   111   57   58 1    
   112   57   59 1    
   113   57  118 1    
   114   58  119 1    
   115   58  120 1    
   116   58  121 1    
   117   59   60 am   BACKBONE|DICT|INTERRES
   118   59  122 1    
   119   60   61 2    
   120   60   62 1    
   121   62   63 1    
   122   62   64 1    
   123   62  123 1    
   124   63  124 1    
   125   63  125 1    
   126   63  126 1    
   127   64   65 am   BACKBONE|DICT|INTERRES
   128   64  127 1    
   129   65   66 2    
@<TRIPOS>SUBSTRUCTURE
     1 UNK         1 GROUP             0       ****    0 ROOT    
