@<TRIPOS>MOLECULE
3R135
127   129    1
SMALL
USER_CHARGES


@<TRIPOS>ATOM
      1 CA        -75.6290   25.0285  -69.7014 C.3       0 UNK        -0.1998 
      2 C         -77.1147   25.3414  -69.5994 C.2       0 UNK         0.4909 
      3 O         -77.8866   24.4890  -69.1624 O.2       0 UNK        -0.5240 
      4 N         -77.5132   26.5619  -69.9842 N.am      1 UNK        -0.4739 
      5 CA        -78.8965   27.0520  -69.9711 C.3       1 UNK         0.0864 
      6 C6        -78.9312   28.5904  -70.1905 C.3       11 UNK        -0.0881 
      7 S7        -80.6041   29.3155  -70.3513 S.3       11 UNK        -0.2682 
      8 C8        -80.2932   30.8011  -71.3622 C.3       11 UNK         0.0289 
      9 C9        -79.7519   30.4773  -72.7500 C.ar      11 UNK        -0.0687 
     10 C10       -80.5861   29.9333  -73.7322 C.ar      11 UNK        -0.0823 
     11 C11       -80.1010   29.6526  -75.0156 C.ar      11 UNK        -0.0830 
     12 C12       -78.7576   29.9301  -75.3021 C.ar      11 UNK        -0.1021 
     13 C13       -77.9108   30.4659  -74.3302 C.ar      11 UNK        -0.0753 
     14 C14       -78.4167   30.7483  -73.0593 C.ar      11 UNK        -0.0933 
     15 C15       -76.4520   30.7489  -74.6639 C.3       11 UNK         0.0166 
     16 S16       -75.3057   29.8514  -73.5728 S.3       11 UNK        -0.2615 
     17 C17       -75.7403   28.1176  -73.9422 C.3       11 UNK        -0.0865 
     18 CA        -74.8384   27.1300  -73.1599 C.3       10 UNK         0.0862 
     19 C         -75.3616   25.6665  -73.2325 C.2       10 UNK         0.5551 
     20 N         -74.5103   24.6586  -73.3733 N.am      10 UNK        -0.7319 
     21 O         -76.5650   25.4344  -73.1380 O.2       10 UNK        -0.5018 
     22 N         -73.4209   27.2830  -73.5297 N.am      10 UNK        -0.4509 
     23 C         -72.3864   27.0746  -72.7032 C.2       10 UNK         0.4899 
     24 O         -72.5177   26.7480  -71.5233 O.2       10 UNK        -0.4839 
     25 CA        -70.9606   27.2182  -73.2721 C.3       9 UNK         0.0222 
     26 CB        -70.2759   25.8428  -73.3507 C.3       9 UNK        -0.1966 
     27 N         -70.9135   27.8415  -74.5956 N.am      9 UNK        -0.4218 
     28 C         -71.0593   29.1504  -74.8442 C.2       9 UNK         0.5020 
     29 O         -71.1642   30.0070  -73.9658 O.2       9 UNK        -0.5274 
     30 CA        -71.0980   29.5787  -76.3256 C.3       8 UNK         0.0270 
     31 CB        -69.7487   30.1850  -76.7459 C.3       8 UNK        -0.1976 
     32 N         -71.4517   28.4968  -77.2562 N.am      8 UNK        -0.4313 
     33 C         -72.6409   27.8806  -77.2873 C.2       8 UNK         0.5041 
     34 O         -73.5620   28.1460  -76.5150 O.2       8 UNK        -0.5577 
     35 CA        -72.7895   26.7253  -78.2844 C.3       7 UNK         0.0284 
     36 CB        -72.4525   25.3910  -77.5961 C.3       7 UNK        -0.1958 
     37 N         -74.1607   26.6676  -78.7917 N.am      7 UNK        -0.4454 
     38 C         -74.5633   27.2217  -79.9441 C.2       7 UNK         0.5089 
     39 O         -73.8067   27.8355  -80.6986 O.2       7 UNK        -0.5125 
     40 CA        -76.0375   27.0500  -80.3680 C.3       6 UNK         0.0408 
     41 CB        -76.1459   26.0255  -81.5096 C.3       6 UNK        -0.1791 
     42 N         -76.9381   26.6448  -79.2870 N.am      6 UNK        -0.4762 
     43 C         -77.3531   27.4469  -78.2961 C.2       6 UNK         0.5007 
     44 O         -77.0378   28.6340  -78.2126 O.2       6 UNK        -0.5032 
     45 CA        -78.2334   26.8039  -77.1928 C.3       5 UNK         0.0783 
     46 C46       -79.7560   26.9675  -77.4582 C.3       11 UNK        -0.0857 
     47 S47       -80.3650   28.6758  -77.6920 S.3       11 UNK        -0.2512 
     48 C48       -81.0766   29.0970  -76.0587 C.3       11 UNK         0.0225 
     49 N         -77.9248   25.3846  -76.9458 N.am      5 UNK        -0.4615 
     50 C         -76.7208   24.8748  -76.6530 C.2       4 UNK         0.5053 
     51 O         -75.6952   25.5466  -76.5785 O.2       4 UNK        -0.5105 
     52 CA        -76.6767   23.3764  -76.3436 C.3       4 UNK         0.0263 
     53 CB        -75.2636   22.7731  -76.4630 C.3       4 UNK        -0.1981 
     54 N         -77.1844   23.2267  -74.9882 N.am      4 UNK        -0.4224 
     55 C         -77.8504   22.1742  -74.5007 C.2       3 UNK         0.4895 
     56 O         -78.0175   21.1165  -75.1083 O.2       3 UNK        -0.5091 
     57 CA        -78.4728   22.3627  -73.1057 C.3       3 UNK         0.0250 
     58 CB        -77.4643   21.9996  -72.0043 C.3       3 UNK        -0.1996 
     59 N         -78.9310   23.7408  -72.9097 N.am      3 UNK        -0.4254 
     60 C         -79.9847   24.2876  -73.5315 C.2       2 UNK         0.5004 
     61 O         -80.7774   23.6421  -74.2189 O.2       2 UNK        -0.5226 
     62 CA        -80.1491   25.8148  -73.4172 C.3       2 UNK         0.0269 
     63 CB        -81.6297   26.2504  -73.4732 C.3       2 UNK        -0.1926 
     64 N         -79.4556   26.4047  -72.2644 N.am      2 UNK        -0.4687 
     65 C         -79.7762   26.2676  -70.9693 C.2       1 UNK         0.5165 
     66 O         -80.7024   25.5700  -70.5522 O.2       1 UNK        -0.5079 
     67 H67       -75.0479   25.8913  -70.0261 H         1 UNK         0.0900 
     68 H68       -75.4630   24.2207  -70.4131 H         1 UNK         0.0900 
     69 H69       -75.2454   24.7108  -68.7324 H         1 UNK         0.0900 
     70 H70       -76.8218   27.2170  -70.3178 H         1 UNK         0.2959 
     71 H71       -79.3031   26.8546  -68.9764 H         1 UNK         0.1079 
     72 H72       -78.4305   29.0898  -69.3596 H         1 UNK         0.0837 
     73 H73       -78.3493   28.8416  -71.0768 H         1 UNK         0.0837 
     74 H74       -79.6082   31.4578  -70.8236 H         1 UNK         0.0685 
     75 H75       -81.2267   31.3561  -71.4643 H         1 UNK         0.0685 
     76 H76       -81.6232   29.7389  -73.4946 H         1 UNK         0.1434 
     77 H77       -78.3563   29.7484  -76.2871 H         1 UNK         0.1329 
     78 H78       -77.7635   31.1727  -72.3090 H         1 UNK         0.1335 
     79 H79       -76.2664   31.8194  -74.5688 H         1 UNK         0.0680 
     80 H80       -76.2266   30.4855  -75.6991 H         1 UNK         0.0680 
     81 H81       -76.7894   27.9744  -73.6796 H         1 UNK         0.1032 
     82 H82       -75.6678   27.9411  -75.0168 H         1 UNK         0.1032 
     83 H83       -74.9362   27.3965  -72.1063 H         1 UNK         0.0461 
     84 H84       -73.5235   24.8425  -73.4383 H         1 UNK         0.3453 
     85 H85       -74.8494   23.7129  -73.4102 H         1 UNK         0.3453 
     86 H86       -73.2535   27.5602  -74.4910 H         1 UNK         0.2984 
     87 H87       -70.3945   27.8410  -72.5764 H         1 UNK         0.0554 
     88 H88       -70.2579   25.3576  -72.3736 H         1 UNK         0.0847 
     89 H89       -69.2410   25.9325  -73.6815 H         1 UNK         0.0847 
     90 H90       -70.7917   25.1707  -74.0378 H         1 UNK         0.0847 
     91 H91       -70.8213   27.2217  -75.3863 H         1 UNK         0.3141 
     92 H92       -71.8632   30.3532  -76.4136 H         1 UNK         0.0743 
     93 H93       -69.4728   31.0139  -76.0922 H         1 UNK         0.0784 
     94 H94       -68.9430   29.4512  -76.6980 H         1 UNK         0.0784 
     95 H95       -69.7880   30.5776  -77.7622 H         1 UNK         0.0784 
     96 H96       -70.7380   28.2151  -77.9139 H         1 UNK         0.3213 
     97 H97       -72.0913   26.8706  -79.1118 H         1 UNK         0.0855 
     98 H98       -73.0658   25.2258  -76.7092 H         1 UNK         0.0814 
     99 H99       -71.4095   25.3652  -77.2790 H         1 UNK         0.0814 
    100 H100      -72.6064   24.5473  -78.2689 H         1 UNK         0.0814 
    101 H101      -74.8488   26.2822  -78.1497 H         1 UNK         0.3105 
    102 H102      -76.3779   28.0152  -80.7493 H         1 UNK         0.0547 
    103 H103      -75.8257   25.0321  -81.1928 H         1 UNK         0.0837 
    104 H104      -77.1681   25.9486  -81.8803 H         1 UNK         0.0837 
    105 H105      -75.5193   26.3142  -82.3548 H         1 UNK         0.0837 
    106 H106      -77.2302   25.6784  -79.2746 H         1 UNK         0.3020 
    107 H107      -77.9918   27.3317  -76.2685 H         1 UNK         0.1245 
    108 H108      -80.3246   26.5080  -76.6489 H         1 UNK         0.0781 
    109 H109      -80.0305   26.4084  -78.3547 H         1 UNK         0.0781 
    110 H110      -81.8463   29.8518  -76.2258 H         1 UNK         0.0836 
    111 H111      -81.5948   28.2271  -75.6557 H         1 UNK         0.0836 
    112 H112      -78.7107   24.7512  -76.9800 H         1 UNK         0.3022 
    113 H113      -77.3375   22.8633  -77.0457 H         1 UNK         0.0747 
    114 H114      -74.8696   22.9058  -77.4712 H         1 UNK         0.0793 
    115 H115      -75.2709   21.7033  -76.2544 H         1 UNK         0.0793 
    116 H116      -74.5596   23.2423  -75.7760 H         1 UNK         0.0793 
    117 H117      -77.0925   24.0509  -74.3988 H         1 UNK         0.3047 
    118 H118      -79.3333   21.6950  -73.0244 H         1 UNK         0.0822 
    119 H119      -77.1257   20.9681  -72.1102 H         1 UNK         0.0807 
    120 H120      -77.9091   22.0955  -71.0134 H         1 UNK         0.0807 
    121 H121      -76.5817   22.6389  -72.0363 H         1 UNK         0.0807 
    122 H122      -78.3048   24.3640  -72.4146 H         1 UNK         0.2946 
    123 H123      -79.6538   26.2305  -74.2953 H         1 UNK         0.1144 
    124 H124      -82.0710   26.0110  -74.4414 H         1 UNK         0.0793 
    125 H125      -81.7379   27.3227  -73.3204 H         1 UNK         0.0793 
    126 H126      -82.2291   25.7463  -72.7148 H         1 UNK         0.0793 
    127 H127      -78.6441   26.9630  -72.4872 H         1 UNK         0.2896 
@<TRIPOS>BOND
     1    1    2 1    
     2    1   67 1    
     3    1   68 1    
     4    1   69 1    
     5    2    3 2    
     6    2    4 am   BACKBONE|DICT|INTERRES
     7    4    5 1    
     8    4   70 1    
     9    5    6 1    
    10    5   65 1    
    11    5   71 1    
    12    6    7 1    
    13    6   72 1    
    14    6   73 1    
    15    7    8 1    
    16    8    9 1    
    17    8   74 1    
    18    8   75 1    
    19    9   10 ar   
    20    9   14 ar   
    21   10   11 ar   
    22   10   76 1    
    23   11   12 ar   
    24   11   48 1    
    25   12   13 ar   
    26   12   77 1    
    27   13   14 ar   
    28   13   15 1    
    29   14   78 1    
    30   15   16 1    
    31   15   79 1    
    32   15   80 1    
    33   16   17 1    
    34   17   18 1    
    35   17   81 1    
    36   17   82 1    
    37   18   19 1    
    38   18   22 1    
    39   18   83 1    
    40   19   20 am   BACKBONE|DICT|INTERRES
    41   19   21 2    
    42   20   84 1    
    43   20   85 1    
    44   22   23 am   BACKBONE|DICT|INTERRES
    45   22   86 1    
    46   23   24 2    
    47   23   25 1    
    48   25   26 1    
    49   25   27 1    
    50   25   87 1    
    51   26   88 1    
    52   26   89 1    
    53   26   90 1    
    54   27   28 am   BACKBONE|DICT|INTERRES
    55   27   91 1    
    56   28   29 2    
    57   28   30 1    
    58   30   31 1    
    59   30   32 1    
    60   30   92 1    
    61   31   93 1    
    62   31   94 1    
    63   31   95 1    
    64   32   33 am   BACKBONE|DICT|INTERRES
    65   32   96 1    
    66   33   34 2    
    67   33   35 1    
    68   35   36 1    
    69   35   37 1    
    70   35   97 1    
    71   36   98 1    
    72   36   99 1    
    73   36  100 1    
    74   37   38 am   BACKBONE|DICT|INTERRES
    75   37  101 1    
    76   38   39 2    
    77   38   40 1    
    78   40   41 1    
    79   40   42 1    
    80   40  102 1    
    81   41  103 1    
    82   41  104 1    
    83   41  105 1    
    84   42   43 am   BACKBONE|DICT|INTERRES
    85   42  106 1    
    86   43   44 2    
    87   43   45 1    
    88   45   46 1    
    89   45   49 1    
    90   45  107 1    
    91   46   47 1    
    92   46  108 1    
    93   46  109 1    
    94   47   48 1    
    95   48  110 1    
    96   48  111 1    
    97   49   50 am   BACKBONE|DICT|INTERRES
    98   49  112 1    
    99   50   51 2    
   100   50   52 1    
   101   52   53 1    
   102   52   54 1    
   103   52  113 1    
   104   53  114 1    
   105   53  115 1    
   106   53  116 1    
   107   54   55 am   BACKBONE|DICT|INTERRES
   108   54  117 1    
   109   55   56 2    
   110   55   57 1    
   111   57   58 1    
   112   57   59 1    
   113   57  118 1    
   114   58  119 1    
   115   58  120 1    
   116   58  121 1    
   117   59   60 am   BACKBONE|DICT|INTERRES
   118   59  122 1    
   119   60   61 2    
   120   60   62 1    
   121   62   63 1    
   122   62   64 1    
   123   62  123 1    
   124   63  124 1    
   125   63  125 1    
   126   63  126 1    
   127   64   65 am   BACKBONE|DICT|INTERRES
   128   64  127 1    
   129   65   66 2    
@<TRIPOS>SUBSTRUCTURE
     1 UNK         1 GROUP             0       ****    0 ROOT    
