@<TRIPOS>MOLECULE
3R135
127   129    1
SMALL
USER_CHARGES


@<TRIPOS>ATOM
      1 CA        -86.1908   28.0645  -72.8863 C.3       0 UNK        -0.1998 
      2 C         -84.7849   27.7624  -73.3838 C.2       0 UNK         0.4909 
      3 O         -84.6224   27.2879  -74.5090 O.2       0 UNK        -0.5240 
      4 N         -83.7687   28.0425  -72.5586 N.am      1 UNK        -0.4739 
      5 CA        -82.3549   27.7759  -72.8503 C.3       1 UNK         0.0864 
      6 C6        -81.4131   28.5590  -71.9023 C.3       11 UNK        -0.0881 
      7 S7        -81.6192   30.3611  -72.0861 S.3       11 UNK        -0.2682 
      8 C8        -80.3295   30.9909  -70.9619 C.3       11 UNK         0.0289 
      9 C9        -78.9115   30.6796  -71.4303 C.ar      11 UNK        -0.0687 
     10 C10       -78.5066   30.9837  -72.7357 C.ar      11 UNK        -0.0823 
     11 C11       -77.2016   30.7113  -73.1572 C.ar      11 UNK        -0.0830 
     12 C12       -76.2875   30.1750  -72.2500 C.ar      11 UNK        -0.1021 
     13 C13       -76.6755   29.8631  -70.9461 C.ar      11 UNK        -0.0753 
     14 C14       -77.9906   30.1122  -70.5421 C.ar      11 UNK        -0.0933 
     15 C15       -75.6589   29.2853  -69.9727 C.3       11 UNK         0.0166 
     16 S16       -75.6418   27.4620  -69.9694 S.3       11 UNK        -0.2615 
     17 C17       -75.0367   27.0491  -71.6434 C.3       11 UNK        -0.0865 
     18 CA        -73.5186   27.3241  -71.8558 C.3       10 UNK         0.0862 
     19 C         -72.6060   26.1264  -71.4555 C.2       10 UNK         0.5551 
     20 N         -71.5111   25.8629  -72.1600 N.am      10 UNK        -0.7319 
     21 O         -72.8828   25.4251  -70.4863 O.2       10 UNK        -0.5018 
     22 N         -73.2574   27.7960  -73.2247 N.am      10 UNK        -0.4509 
     23 C         -72.7618   28.9929  -73.5609 C.2       10 UNK         0.4899 
     24 O         -72.5636   29.9009  -72.7528 O.2       10 UNK        -0.4839 
     25 CA        -72.4421   29.2194  -75.0562 C.3       9 UNK         0.0222 
     26 CB        -71.3856   30.3243  -75.2699 C.3       9 UNK        -0.1966 
     27 N         -72.0612   28.0009  -75.7922 N.am      9 UNK        -0.4218 
     28 C         -71.0540   27.1676  -75.4839 C.2       9 UNK         0.5020 
     29 O         -70.3358   27.3176  -74.4934 O.2       9 UNK        -0.5274 
     30 CA        -70.8035   25.9584  -76.4008 C.3       8 UNK         0.0270 
     31 CB        -70.2504   24.7461  -75.6202 C.3       8 UNK        -0.1976 
     32 N         -71.9849   25.5398  -77.1646 N.am      8 UNK        -0.4313 
     33 C         -71.9038   24.9501  -78.3673 C.2       8 UNK         0.5041 
     34 O         -70.8595   24.8689  -79.0168 O.2       8 UNK        -0.5577 
     35 CA        -73.1702   24.2916  -78.9374 C.3       7 UNK         0.0284 
     36 CB        -73.3797   22.9012  -78.3167 C.3       7 UNK        -0.1958 
     37 N         -74.3837   25.0914  -78.7809 N.am      7 UNK        -0.4454 
     38 C         -74.6645   26.1750  -79.5172 C.2       7 UNK         0.5089 
     39 O         -73.9001   26.6573  -80.3535 O.2       7 UNK        -0.5125 
     40 CA        -76.0396   26.8248  -79.2908 C.3       6 UNK         0.0408 
     41 CB        -77.1344   26.0691  -80.0611 C.3       6 UNK        -0.1791 
     42 N         -76.3965   26.8974  -77.8743 N.am      6 UNK        -0.4762 
     43 C         -75.7934   27.7066  -76.9929 C.2       6 UNK         0.5007 
     44 O         -74.8821   28.4800  -77.2872 O.2       6 UNK        -0.5032 
     45 CA        -76.2486   27.5883  -75.5246 C.3       5 UNK         0.0783 
     46 C46       -77.5929   28.3111  -75.2417 C.3       11 UNK        -0.0857 
     47 S47       -77.7279   30.0439  -75.8180 S.3       11 UNK        -0.2512 
     48 C48       -76.7681   30.9885  -74.5891 C.3       11 UNK         0.0225 
     49 N         -76.2951   26.1769  -75.1158 N.am      5 UNK        -0.4615 
     50 C         -75.2157   25.3833  -75.0155 C.2       4 UNK         0.5053 
     51 O         -74.0644   25.7950  -75.1522 O.2       4 UNK        -0.5105 
     52 CA        -75.4246   23.8808  -74.7477 C.3       4 UNK         0.0263 
     53 CB        -75.2266   23.5523  -73.2611 C.3       4 UNK        -0.1981 
     54 N         -76.7216   23.3667  -75.1830 N.am      4 UNK        -0.4224 
     55 C         -77.1730   23.3571  -76.4450 C.2       3 UNK         0.4895 
     56 O         -76.5079   23.7276  -77.4120 O.2       3 UNK        -0.5091 
     57 CA        -78.6364   22.9210  -76.6498 C.3       3 UNK         0.0250 
     58 CB        -78.7037   21.4308  -77.0184 C.3       3 UNK        -0.1996 
     59 N         -79.5030   23.1815  -75.4891 N.am      3 UNK        -0.4254 
     60 C         -79.7105   24.3941  -74.9561 C.2       2 UNK         0.5004 
     61 O         -79.1897   25.4260  -75.3884 O.2       2 UNK        -0.5226 
     62 CA        -80.5746   24.4660  -73.6939 C.3       2 UNK         0.0269 
     63 CB        -79.7576   24.0453  -72.4560 C.3       2 UNK        -0.1926 
     64 N         -81.0315   25.8449  -73.5495 N.am      2 UNK        -0.4687 
     65 C         -82.0505   26.2643  -72.7949 C.2       1 UNK         0.5165 
     66 O         -82.7139   25.5204  -72.0664 O.2       1 UNK        -0.5079 
     67 H67       -86.6808   28.7731  -73.5534 H         1 UNK         0.0900 
     68 H68       -86.7846   27.1511  -72.8628 H         1 UNK         0.0900 
     69 H69       -86.1853   28.4912  -71.8834 H         1 UNK         0.0900 
     70 H70       -83.9594   28.4232  -71.6430 H         1 UNK         0.2959 
     71 H71       -82.1618   28.1100  -73.8728 H         1 UNK         0.1079 
     72 H72       -81.5913   28.2842  -70.8607 H         1 UNK         0.0837 
     73 H73       -80.3692   28.3158  -72.1121 H         1 UNK         0.0837 
     74 H74       -80.4371   32.0732  -70.8802 H         1 UNK         0.0685 
     75 H75       -80.5083   30.5878  -69.9638 H         1 UNK         0.0685 
     76 H76       -79.2129   31.4165  -73.4312 H         1 UNK         0.1434 
     77 H77       -75.2698   29.9880  -72.5588 H         1 UNK         0.1329 
     78 H78       -78.2903   29.8770  -69.5299 H         1 UNK         0.1335 
     79 H79       -74.6616   29.6641  -70.2004 H         1 UNK         0.0680 
     80 H80       -75.8842   29.6305  -68.9626 H         1 UNK         0.0680 
     81 H81       -75.2690   26.0025  -71.8316 H         1 UNK         0.1032 
     82 H82       -75.6424   27.5933  -72.3659 H         1 UNK         0.1032 
     83 H83       -73.2212   28.1120  -71.1638 H         1 UNK         0.0461 
     84 H84       -70.9287   25.0890  -71.8838 H         1 UNK         0.3453 
     85 H85       -71.2242   26.4576  -72.9300 H         1 UNK         0.3453 
     86 H86       -73.3673   27.0949  -73.9532 H         1 UNK         0.2984 
     87 H87       -73.3700   29.5741  -75.5031 H         1 UNK         0.0554 
     88 H88       -71.1962   30.4925  -76.3299 H         1 UNK         0.0847 
     89 H89       -70.4367   30.0725  -74.7949 H         1 UNK         0.0847 
     90 H90       -71.7177   31.2742  -74.8492 H         1 UNK         0.0847 
     91 H91       -72.6236   27.7952  -76.6079 H         1 UNK         0.3141 
     92 H92       -70.0299   26.2932  -77.0950 H         1 UNK         0.0743 
     93 H93       -70.9716   24.3841  -74.8863 H         1 UNK         0.0784 
     94 H94       -70.0071   23.9185  -76.2866 H         1 UNK         0.0784 
     95 H95       -69.3346   24.9995  -75.0845 H         1 UNK         0.0784 
     96 H96       -72.8702   25.5641  -76.6640 H         1 UNK         0.3213 
     97 H97       -73.0064   24.1477  -80.0080 H         1 UNK         0.0855 
     98 H98       -73.5249   22.9566  -77.2392 H         1 UNK         0.0814 
     99 H99       -72.5137   22.2621  -78.4942 H         1 UNK         0.0814 
    100 H100      -74.2467   22.3993  -78.7469 H         1 UNK         0.0814 
    101 H101      -75.1074   24.7213  -78.1680 H         1 UNK         0.3105 
    102 H102      -75.9960   27.8437  -79.6821 H         1 UNK         0.0547 
    103 H103      -78.1007   26.5641  -79.9651 H         1 UNK         0.0837 
    104 H104      -76.8995   26.0233  -81.1253 H         1 UNK         0.0837 
    105 H105      -77.2464   25.0431  -79.7088 H         1 UNK         0.0837 
    106 H106      -77.1015   26.2535  -77.5431 H         1 UNK         0.3020 
    107 H107      -75.4862   28.0820  -74.9211 H         1 UNK         0.1245 
    108 H108      -77.8254   28.2644  -74.1770 H         1 UNK         0.0781 
    109 H109      -78.4034   27.7786  -75.7379 H         1 UNK         0.0781 
    110 H110      -76.8827   32.0535  -74.7953 H         1 UNK         0.0836 
    111 H111      -75.7092   30.7644  -74.7277 H         1 UNK         0.0836 
    112 H112      -77.2209   25.7692  -75.0336 H         1 UNK         0.3022 
    113 H113      -74.6558   23.3488  -75.3083 H         1 UNK         0.0747 
    114 H114      -75.2095   22.4749  -73.0959 H         1 UNK         0.0793 
    115 H115      -74.2772   23.9448  -72.8939 H         1 UNK         0.0793 
    116 H116      -76.0230   23.9689  -72.6439 H         1 UNK         0.0793 
    117 H117      -77.3421   23.0346  -74.4600 H         1 UNK         0.3047 
    118 H118      -79.0279   23.5001  -77.4890 H         1 UNK         0.0822 
    119 H119      -78.3509   20.7957  -76.2048 H         1 UNK         0.0807 
    120 H120      -78.0842   21.2167  -77.8909 H         1 UNK         0.0807 
    121 H121      -79.7214   21.1279  -77.2653 H         1 UNK         0.0807 
    122 H122      -79.9563   22.3794  -75.0741 H         1 UNK         0.2946 
    123 H123      -81.4391   23.8098  -73.8181 H         1 UNK         0.1144 
    124 H124      -79.3950   23.0211  -72.5501 H         1 UNK         0.0793 
    125 H125      -78.8892   24.6892  -72.3092 H         1 UNK         0.0793 
    126 H126      -80.3587   24.0869  -71.5476 H         1 UNK         0.0793 
    127 H127      -80.5354   26.4947  -74.1486 H         1 UNK         0.2896 
@<TRIPOS>BOND
     1    1    2 1    
     2    1   67 1    
     3    1   68 1    
     4    1   69 1    
     5    2    3 2    
     6    2    4 am   BACKBONE|DICT|INTERRES
     7    4    5 1    
     8    4   70 1    
     9    5    6 1    
    10    5   65 1    
    11    5   71 1    
    12    6    7 1    
    13    6   72 1    
    14    6   73 1    
    15    7    8 1    
    16    8    9 1    
    17    8   74 1    
    18    8   75 1    
    19    9   10 ar   
    20    9   14 ar   
    21   10   11 ar   
    22   10   76 1    
    23   11   12 ar   
    24   11   48 1    
    25   12   13 ar   
    26   12   77 1    
    27   13   14 ar   
    28   13   15 1    
    29   14   78 1    
    30   15   16 1    
    31   15   79 1    
    32   15   80 1    
    33   16   17 1    
    34   17   18 1    
    35   17   81 1    
    36   17   82 1    
    37   18   19 1    
    38   18   22 1    
    39   18   83 1    
    40   19   20 am   BACKBONE|DICT|INTERRES
    41   19   21 2    
    42   20   84 1    
    43   20   85 1    
    44   22   23 am   BACKBONE|DICT|INTERRES
    45   22   86 1    
    46   23   24 2    
    47   23   25 1    
    48   25   26 1    
    49   25   27 1    
    50   25   87 1    
    51   26   88 1    
    52   26   89 1    
    53   26   90 1    
    54   27   28 am   BACKBONE|DICT|INTERRES
    55   27   91 1    
    56   28   29 2    
    57   28   30 1    
    58   30   31 1    
    59   30   32 1    
    60   30   92 1    
    61   31   93 1    
    62   31   94 1    
    63   31   95 1    
    64   32   33 am   BACKBONE|DICT|INTERRES
    65   32   96 1    
    66   33   34 2    
    67   33   35 1    
    68   35   36 1    
    69   35   37 1    
    70   35   97 1    
    71   36   98 1    
    72   36   99 1    
    73   36  100 1    
    74   37   38 am   BACKBONE|DICT|INTERRES
    75   37  101 1    
    76   38   39 2    
    77   38   40 1    
    78   40   41 1    
    79   40   42 1    
    80   40  102 1    
    81   41  103 1    
    82   41  104 1    
    83   41  105 1    
    84   42   43 am   BACKBONE|DICT|INTERRES
    85   42  106 1    
    86   43   44 2    
    87   43   45 1    
    88   45   46 1    
    89   45   49 1    
    90   45  107 1    
    91   46   47 1    
    92   46  108 1    
    93   46  109 1    
    94   47   48 1    
    95   48  110 1    
    96   48  111 1    
    97   49   50 am   BACKBONE|DICT|INTERRES
    98   49  112 1    
    99   50   51 2    
   100   50   52 1    
   101   52   53 1    
   102   52   54 1    
   103   52  113 1    
   104   53  114 1    
   105   53  115 1    
   106   53  116 1    
   107   54   55 am   BACKBONE|DICT|INTERRES
   108   54  117 1    
   109   55   56 2    
   110   55   57 1    
   111   57   58 1    
   112   57   59 1    
   113   57  118 1    
   114   58  119 1    
   115   58  120 1    
   116   58  121 1    
   117   59   60 am   BACKBONE|DICT|INTERRES
   118   59  122 1    
   119   60   61 2    
   120   60   62 1    
   121   62   63 1    
   122   62   64 1    
   123   62  123 1    
   124   63  124 1    
   125   63  125 1    
   126   63  126 1    
   127   64   65 am   BACKBONE|DICT|INTERRES
   128   64  127 1    
   129   65   66 2    
@<TRIPOS>SUBSTRUCTURE
     1 UNK         1 GROUP             0       ****    0 ROOT    
