@<TRIPOS>MOLECULE
3R135
127   129    1
SMALL
USER_CHARGES


@<TRIPOS>ATOM
      1 CA        -80.2866   24.1488  -68.6574 C.3       0 UNK        -0.1998 
      2 C         -81.0228   24.5606  -69.9233 C.2       0 UNK         0.4909 
      3 O         -82.2173   24.2917  -70.0532 O.2       0 UNK        -0.5240 
      4 N         -80.3187   25.2118  -70.8579 N.am      1 UNK        -0.4739 
      5 CA        -80.8494   25.6551  -72.1543 C.3       1 UNK         0.0864 
      6 C6        -80.0097   26.8067  -72.7647 C.3       11 UNK        -0.0881 
      7 S7        -78.2135   26.4672  -72.8540 S.3       11 UNK        -0.2682 
      8 C8        -77.5735   27.5560  -71.5304 C.3       11 UNK         0.0289 
      9 C9        -77.3562   29.0205  -71.9212 C.ar      11 UNK        -0.0687 
     10 C10       -78.0132   29.6232  -73.0021 C.ar      11 UNK        -0.0823 
     11 C11       -77.7714   30.9593  -73.3418 C.ar      11 UNK        -0.0830 
     12 C12       -76.8896   31.7100  -72.5604 C.ar      11 UNK        -0.1021 
     13 C13       -76.2442   31.1350  -71.4631 C.ar      11 UNK        -0.0753 
     14 C14       -76.4790   29.7925  -71.1528 C.ar      11 UNK        -0.0933 
     15 C15       -75.2986   31.9661  -70.6080 C.3       11 UNK         0.0166 
     16 S16       -73.5561   31.5225  -70.8873 S.3       11 UNK        -0.2615 
     17 C17       -73.3042   32.0352  -72.6250 C.3       11 UNK        -0.0865 
     18 CA        -73.4345   30.8609  -73.6410 C.3       10 UNK         0.0862 
     19 C         -73.2768   31.3233  -75.1215 C.2       10 UNK         0.5551 
     20 N         -72.8120   30.4732  -76.0281 N.am      10 UNK        -0.7319 
     21 O         -73.6013   32.4585  -75.4613 O.2       10 UNK        -0.5018 
     22 N         -72.6224   29.6896  -73.2712 N.am      10 UNK        -0.4509 
     23 C         -71.2850   29.6292  -73.1998 C.2       10 UNK         0.4899 
     24 O         -70.5370   30.5681  -73.4744 O.2       10 UNK        -0.4839 
     25 CA        -70.6656   28.2997  -72.7187 C.3       9 UNK         0.0222 
     26 CB        -70.0986   28.4602  -71.2981 C.3       9 UNK        -0.1966 
     27 N         -71.6016   27.1685  -72.7328 N.am      9 UNK        -0.4218 
     28 C         -72.0892   26.6017  -73.8440 C.2       9 UNK         0.5020 
     29 O         -71.7260   26.9212  -74.9791 O.2       9 UNK        -0.5274 
     30 CA        -73.1732   25.5284  -73.6417 C.3       8 UNK         0.0270 
     31 CB        -74.3363   26.0499  -72.7741 C.3       8 UNK        -0.1976 
     32 N         -73.7164   25.1500  -74.9412 N.am      8 UNK        -0.4313 
     33 C         -73.5714   23.9660  -75.5474 C.2       8 UNK         0.5041 
     34 O         -73.0241   22.9921  -75.0271 O.2       8 UNK        -0.5577 
     35 CA        -74.1246   23.8361  -76.9802 C.3       7 UNK         0.0284 
     36 CB        -75.3670   22.9296  -77.0050 C.3       7 UNK        -0.1958 
     37 N         -74.4549   25.1385  -77.5695 N.am      7 UNK        -0.4454 
     38 C         -73.5479   25.9551  -78.1286 C.2       7 UNK         0.5089 
     39 O         -72.3739   25.6336  -78.3150 O.2       7 UNK        -0.5125 
     40 CA        -74.0019   27.3652  -78.5573 C.3       6 UNK         0.0408 
     41 CB        -74.1047   27.4509  -80.0889 C.3       6 UNK        -0.1791 
     42 N         -75.2713   27.8059  -77.9744 N.am      6 UNK        -0.4762 
     43 C         -75.4947   28.0605  -76.6762 C.2       6 UNK         0.5007 
     44 O         -74.6425   27.9455  -75.7972 O.2       6 UNK        -0.5032 
     45 CA        -76.9385   28.4478  -76.2958 C.3       5 UNK         0.0783 
     46 C46       -77.1245   29.9819  -76.4170 C.3       11 UNK        -0.0857 
     47 S47       -78.8025   30.5233  -75.9428 S.3       11 UNK        -0.2512 
     48 C48       -78.4689   31.6275  -74.5261 C.3       11 UNK         0.0225 
     49 N         -77.9497   27.7056  -77.0674 N.am      5 UNK        -0.4615 
     50 C         -78.0358   26.3721  -77.1529 C.2       4 UNK         0.5053 
     51 O         -77.2433   25.6000  -76.6120 O.2       4 UNK        -0.5105 
     52 CA        -79.1387   25.8123  -78.0556 C.3       4 UNK         0.0263 
     53 CB        -78.7359   25.9580  -79.5379 C.3       4 UNK        -0.1981 
     54 N         -79.3409   24.4063  -77.7170 N.am      4 UNK        -0.4224 
     55 C         -80.3421   23.6220  -78.1261 C.2       3 UNK         0.4895 
     56 O         -81.2649   24.0053  -78.8463 O.2       3 UNK        -0.5091 
     57 CA        -80.3178   22.1566  -77.6561 C.3       3 UNK         0.0250 
     58 CB        -79.0212   21.4299  -78.0735 C.3       3 UNK        -0.1996 
     59 N         -80.5984   22.0035  -76.2227 N.am      3 UNK        -0.4254 
     60 C         -79.8608   22.4231  -75.1851 C.2       2 UNK         0.5004 
     61 O         -78.7585   22.9644  -75.2862 O.2       2 UNK        -0.5226 
     62 CA        -80.4484   22.1702  -73.7871 C.3       2 UNK         0.0269 
     63 CB        -79.7144   21.0126  -73.0910 C.3       2 UNK        -0.1926 
     64 N         -80.3698   23.3650  -72.9456 N.am      2 UNK        -0.4687 
     65 C         -81.0596   24.4964  -73.1544 C.2       1 UNK         0.5165 
     66 O         -81.8645   24.6394  -74.0768 O.2       1 UNK        -0.5079 
     67 H67       -79.2416   24.4576  -68.6742 H         1 UNK         0.0900 
     68 H68       -80.3186   23.0659  -68.5405 H         1 UNK         0.0900 
     69 H69       -80.7591   24.6000  -67.7853 H         1 UNK         0.0900 
     70 H70       -79.3371   25.3988  -70.7099 H         1 UNK         0.2959 
     71 H71       -81.8481   26.0591  -71.9716 H         1 UNK         0.1079 
     72 H72       -80.3637   27.0547  -73.7676 H         1 UNK         0.0837 
     73 H73       -80.1724   27.7100  -72.1750 H         1 UNK         0.0837 
     74 H74       -78.2402   27.5141  -70.6683 H         1 UNK         0.0685 
     75 H75       -76.6231   27.1359  -71.1988 H         1 UNK         0.0685 
     76 H76       -78.7126   29.0548  -73.5948 H         1 UNK         0.1434 
     77 H77       -76.7068   32.7478  -72.8043 H         1 UNK         0.1329 
     78 H78       -75.9719   29.3486  -70.3067 H         1 UNK         0.1335 
     79 H79       -75.4358   33.0323  -70.7950 H         1 UNK         0.0680 
     80 H80       -75.5362   31.8093  -69.5548 H         1 UNK         0.0680 
     81 H81       -72.3154   32.4900  -72.7025 H         1 UNK         0.1032 
     82 H82       -74.0131   32.8294  -72.8652 H         1 UNK         0.1032 
     83 H83       -74.4631   30.5049  -73.5885 H         1 UNK         0.0461 
     84 H84       -72.6114   29.5184  -75.7671 H         1 UNK         0.3453 
     85 H85       -72.7116   30.7724  -76.9841 H         1 UNK         0.3453 
     86 H86       -73.1457   28.8576  -73.0476 H         1 UNK         0.2984 
     87 H87       -69.8382   28.0641  -73.3914 H         1 UNK         0.0554 
     88 H88       -69.5970   27.5521  -70.9630 H         1 UNK         0.0847 
     89 H89       -70.8803   28.7016  -70.5763 H         1 UNK         0.0847 
     90 H90       -69.3634   29.2654  -71.2599 H         1 UNK         0.0847 
     91 H91       -71.9317   26.8441  -71.8350 H         1 UNK         0.3141 
     92 H92       -72.7126   24.6701  -73.1486 H         1 UNK         0.0743 
     93 H93       -74.7712   26.9626  -73.1847 H         1 UNK         0.0784 
     94 H94       -75.1352   25.3108  -72.7062 H         1 UNK         0.0784 
     95 H95       -74.0180   26.2644  -71.7538 H         1 UNK         0.0784 
     96 H96       -74.0949   25.9235  -75.4776 H         1 UNK         0.3213 
     97 H97       -73.3523   23.3592  -77.5876 H         1 UNK         0.0855 
     98 H98       -76.1392   23.2804  -76.3198 H         1 UNK         0.0814 
     99 H99       -75.1105   21.9137  -76.7025 H         1 UNK         0.0814 
    100 H100      -75.8010   22.8719  -78.0031 H         1 UNK         0.0814 
    101 H101      -75.4032   25.4703  -77.4184 H         1 UNK         0.3105 
    102 H102      -73.2292   28.0629  -78.2276 H         1 UNK         0.0547 
    103 H103      -73.1630   27.1664  -80.5607 H         1 UNK         0.0837 
    104 H104      -74.8772   26.7872  -80.4795 H         1 UNK         0.0837 
    105 H105      -74.3333   28.4650  -80.4168 H         1 UNK         0.0837 
    106 H106      -76.0469   27.9080  -78.6128 H         1 UNK         0.3020 
    107 H107      -77.0656   28.1620  -75.2497 H         1 UNK         0.1245 
    108 H108      -76.9462   30.3113  -77.4425 H         1 UNK         0.0781 
    109 H109      -76.3885   30.5041  -75.8020 H         1 UNK         0.0781 
    110 H110      -79.4160   32.0421  -74.1791 H         1 UNK         0.0836 
    111 H111      -77.8772   32.4710  -74.8857 H         1 UNK         0.0836 
    112 H112      -78.6397   28.2728  -77.5390 H         1 UNK         0.3022 
    113 H113      -80.0638   26.3586  -77.8610 H         1 UNK         0.0747 
    114 H114      -79.5176   25.5960  -80.2055 H         1 UNK         0.0793 
    115 H115      -78.5558   27.0014  -79.7992 H         1 UNK         0.0793 
    116 H116      -77.8239   25.4024  -79.7612 H         1 UNK         0.0793 
    117 H117      -78.6819   24.0378  -77.0326 H         1 UNK         0.3047 
    118 H118      -81.1396   21.6558  -78.1709 H         1 UNK         0.0822 
    119 H119      -79.0724   20.3673  -77.8365 H         1 UNK         0.0807 
    120 H120      -78.1377   21.8362  -77.5819 H         1 UNK         0.0807 
    121 H121      -78.8587   21.5139  -79.1488 H         1 UNK         0.0807 
    122 H122      -81.4947   21.5839  -76.0167 H         1 UNK         0.2946 
    123 H123      -81.5025   21.9010  -73.8859 H         1 UNK         0.1144 
    124 H124      -80.1492   20.7949  -72.1152 H         1 UNK         0.0793 
    125 H125      -78.6563   21.2357  -72.9463 H         1 UNK         0.0793 
    126 H126      -79.7760   20.0990  -73.6840 H         1 UNK         0.0793 
    127 H127      -79.7064   23.3478  -72.1856 H         1 UNK         0.2896 
@<TRIPOS>BOND
     1    1    2 1    
     2    1   67 1    
     3    1   68 1    
     4    1   69 1    
     5    2    3 2    
     6    2    4 am   BACKBONE|DICT|INTERRES
     7    4    5 1    
     8    4   70 1    
     9    5    6 1    
    10    5   65 1    
    11    5   71 1    
    12    6    7 1    
    13    6   72 1    
    14    6   73 1    
    15    7    8 1    
    16    8    9 1    
    17    8   74 1    
    18    8   75 1    
    19    9   10 ar   
    20    9   14 ar   
    21   10   11 ar   
    22   10   76 1    
    23   11   12 ar   
    24   11   48 1    
    25   12   13 ar   
    26   12   77 1    
    27   13   14 ar   
    28   13   15 1    
    29   14   78 1    
    30   15   16 1    
    31   15   79 1    
    32   15   80 1    
    33   16   17 1    
    34   17   18 1    
    35   17   81 1    
    36   17   82 1    
    37   18   19 1    
    38   18   22 1    
    39   18   83 1    
    40   19   20 am   BACKBONE|DICT|INTERRES
    41   19   21 2    
    42   20   84 1    
    43   20   85 1    
    44   22   23 am   BACKBONE|DICT|INTERRES
    45   22   86 1    
    46   23   24 2    
    47   23   25 1    
    48   25   26 1    
    49   25   27 1    
    50   25   87 1    
    51   26   88 1    
    52   26   89 1    
    53   26   90 1    
    54   27   28 am   BACKBONE|DICT|INTERRES
    55   27   91 1    
    56   28   29 2    
    57   28   30 1    
    58   30   31 1    
    59   30   32 1    
    60   30   92 1    
    61   31   93 1    
    62   31   94 1    
    63   31   95 1    
    64   32   33 am   BACKBONE|DICT|INTERRES
    65   32   96 1    
    66   33   34 2    
    67   33   35 1    
    68   35   36 1    
    69   35   37 1    
    70   35   97 1    
    71   36   98 1    
    72   36   99 1    
    73   36  100 1    
    74   37   38 am   BACKBONE|DICT|INTERRES
    75   37  101 1    
    76   38   39 2    
    77   38   40 1    
    78   40   41 1    
    79   40   42 1    
    80   40  102 1    
    81   41  103 1    
    82   41  104 1    
    83   41  105 1    
    84   42   43 am   BACKBONE|DICT|INTERRES
    85   42  106 1    
    86   43   44 2    
    87   43   45 1    
    88   45   46 1    
    89   45   49 1    
    90   45  107 1    
    91   46   47 1    
    92   46  108 1    
    93   46  109 1    
    94   47   48 1    
    95   48  110 1    
    96   48  111 1    
    97   49   50 am   BACKBONE|DICT|INTERRES
    98   49  112 1    
    99   50   51 2    
   100   50   52 1    
   101   52   53 1    
   102   52   54 1    
   103   52  113 1    
   104   53  114 1    
   105   53  115 1    
   106   53  116 1    
   107   54   55 am   BACKBONE|DICT|INTERRES
   108   54  117 1    
   109   55   56 2    
   110   55   57 1    
   111   57   58 1    
   112   57   59 1    
   113   57  118 1    
   114   58  119 1    
   115   58  120 1    
   116   58  121 1    
   117   59   60 am   BACKBONE|DICT|INTERRES
   118   59  122 1    
   119   60   61 2    
   120   60   62 1    
   121   62   63 1    
   122   62   64 1    
   123   62  123 1    
   124   63  124 1    
   125   63  125 1    
   126   63  126 1    
   127   64   65 am   BACKBONE|DICT|INTERRES
   128   64  127 1    
   129   65   66 2    
@<TRIPOS>SUBSTRUCTURE
     1 UNK         1 GROUP             0       ****    0 ROOT    
