@<TRIPOS>MOLECULE
3R135
127   129    1
SMALL
USER_CHARGES


@<TRIPOS>ATOM
      1 CA        -78.9629   21.5545  -72.4413 C.3       0 UNK        -0.1998 
      2 C         -79.8623   22.4756  -71.6311 C.2       0 UNK         0.4909 
      3 O         -80.2623   22.1208  -70.5213 O.2       0 UNK        -0.5240 
      4 N         -80.1811   23.6483  -72.1873 N.am      1 UNK        -0.4739 
      5 CA        -81.1078   24.6336  -71.6234 C.3       1 UNK         0.0864 
      6 C6        -80.4547   26.0397  -71.5504 C.3       11 UNK        -0.0881 
      7 S7        -79.0553   26.1161  -70.3843 S.3       11 UNK        -0.2682 
      8 C8        -78.8783   27.9174  -70.1718 C.3       11 UNK         0.0289 
      9 C9        -78.2264   28.5722  -71.3822 C.ar      11 UNK        -0.0687 
     10 C10       -78.9937   28.9246  -72.4961 C.ar      11 UNK        -0.0823 
     11 C11       -78.3991   29.5113  -73.6162 C.ar      11 UNK        -0.0830 
     12 C12       -77.0260   29.7782  -73.6050 C.ar      11 UNK        -0.1021 
     13 C13       -76.2523   29.4541  -72.4856 C.ar      11 UNK        -0.0753 
     14 C14       -76.8551   28.8415  -71.3829 C.ar      11 UNK        -0.0933 
     15 C15       -74.7655   29.7667  -72.4602 C.3       11 UNK         0.0166 
     16 S16       -74.4690   31.4903  -71.9679 S.3       11 UNK        -0.2615 
     17 C17       -72.6988   31.4504  -71.5241 C.3       11 UNK        -0.0865 
     18 CA        -71.7764   31.7146  -72.7402 C.3       10 UNK         0.0862 
     19 C         -70.3449   32.1030  -72.2818 C.2       10 UNK         0.5551 
     20 N         -70.0853   33.3890  -72.0910 N.am      10 UNK        -0.7319 
     21 O         -69.4847   31.2529  -72.0583 O.2       10 UNK        -0.5018 
     22 N         -71.7511   30.5575  -73.6427 N.am      10 UNK        -0.4509 
     23 C         -71.4233   30.6013  -74.9355 C.2       10 UNK         0.4899 
     24 O         -71.1980   31.6486  -75.5431 O.2       10 UNK        -0.4839 
     25 CA        -71.3330   29.2700  -75.7046 C.3       9 UNK         0.0222 
     26 CB        -69.8642   28.8392  -75.8778 C.3       9 UNK        -0.1966 
     27 N         -72.1447   28.1546  -75.1943 N.am      9 UNK        -0.4218 
     28 C         -72.0255   27.4546  -74.0559 C.2       9 UNK         0.5020 
     29 O         -71.2930   27.7797  -73.1216 O.2       9 UNK        -0.5274 
     30 CA        -72.8490   26.1556  -73.9480 C.3       8 UNK         0.0270 
     31 CB        -74.2317   26.4154  -73.3324 C.3       8 UNK        -0.1976 
     32 N         -73.0139   25.4774  -75.2361 N.am      8 UNK        -0.4313 
     33 C         -72.0191   24.9223  -75.9444 C.2       8 UNK         0.5041 
     34 O         -70.8547   24.8428  -75.5517 O.2       8 UNK        -0.5577 
     35 CA        -72.3807   24.3885  -77.3384 C.3       7 UNK         0.0284 
     36 CB        -72.9786   22.9751  -77.2491 C.3       7 UNK        -0.1958 
     37 N         -73.3138   25.2839  -78.0255 N.am      7 UNK        -0.4454 
     38 C         -72.9528   26.4183  -78.6425 C.2       7 UNK         0.5089 
     39 O         -71.7862   26.7909  -78.7655 O.2       7 UNK        -0.5125 
     40 CA        -74.0824   27.2953  -79.2129 C.3       6 UNK         0.0408 
     41 CB        -74.3549   26.9313  -80.6806 C.3       6 UNK        -0.1791 
     42 N         -75.3312   27.2073  -78.4501 N.am      6 UNK        -0.4762 
     43 C         -75.4986   27.6841  -77.2073 C.2       6 UNK         0.5007 
     44 O         -74.6171   28.2648  -76.5761 O.2       6 UNK        -0.5032 
     45 CA        -76.8651   27.4278  -76.5400 C.3       5 UNK         0.0783 
     46 C46       -77.8513   28.5632  -76.9012 C.3       11 UNK        -0.0857 
     47 S47       -79.4175   28.4598  -75.9711 S.3       11 UNK        -0.2512 
     48 C48       -79.2547   29.8664  -74.8234 C.3       11 UNK         0.0225 
     49 N         -77.4072   26.0986  -76.8548 N.am      5 UNK        -0.4615 
     50 C         -76.8016   24.9329  -76.5867 C.2       4 UNK         0.5053 
     51 O         -75.6820   24.8593  -76.0779 O.2       4 UNK        -0.5105 
     52 CA        -77.5313   23.6388  -77.0008 C.3       4 UNK         0.0263 
     53 CB        -77.1844   22.4555  -76.0722 C.3       4 UNK        -0.1981 
     54 N         -78.9872   23.7837  -77.1529 N.am      4 UNK        -0.4224 
     55 C         -79.8742   24.0593  -76.1871 C.2       3 UNK         0.4895 
     56 O         -79.5793   24.2505  -75.0016 O.2       3 UNK        -0.5091 
     57 CA        -81.3466   24.1121  -76.6183 C.3       3 UNK         0.0250 
     58 CB        -81.9098   22.6826  -76.7554 C.3       3 UNK        -0.1996 
     59 N         -82.0496   24.8518  -75.5808 N.am      3 UNK        -0.4254 
     60 C         -83.3423   25.1785  -75.4848 C.2       2 UNK         0.5004 
     61 O         -84.1744   24.9654  -76.3678 O.2       2 UNK        -0.5226 
     62 CA        -83.7664   25.8757  -74.1712 C.3       2 UNK         0.0269 
     63 CB        -85.1788   25.4593  -73.7075 C.3       2 UNK        -0.1926 
     64 N         -82.7738   25.7245  -73.0895 N.am      2 UNK        -0.4687 
     65 C         -82.3846   24.5840  -72.4908 C.2       1 UNK         0.5165 
     66 O         -82.9563   23.5037  -72.6521 O.2       1 UNK        -0.5079 
     67 H67       -79.0039   21.7930  -73.5043 H         1 UNK         0.0900 
     68 H68       -77.9296   21.6446  -72.1054 H         1 UNK         0.0900 
     69 H69       -79.2744   20.5166  -72.3199 H         1 UNK         0.0900 
     70 H70       -79.8445   23.8587  -73.1240 H         1 UNK         0.2959 
     71 H71       -81.4124   24.3461  -70.6148 H         1 UNK         0.1079 
     72 H72       -81.1857   26.7840  -71.2291 H         1 UNK         0.0837 
     73 H73       -80.0919   26.3401  -72.5354 H         1 UNK         0.0837 
     74 H74       -78.2778   28.1036  -69.2800 H         1 UNK         0.0685 
     75 H75       -79.8522   28.3684  -69.9764 H         1 UNK         0.0685 
     76 H76       -80.0575   28.7348  -72.4971 H         1 UNK         0.1434 
     77 H77       -76.5585   30.2468  -74.4600 H         1 UNK         0.1329 
     78 H78       -76.2576   28.5827  -70.5195 H         1 UNK         0.1335 
     79 H79       -74.2524   29.0987  -71.7678 H         1 UNK         0.0680 
     80 H80       -74.3355   29.5908  -73.4468 H         1 UNK         0.0680 
     81 H81       -72.4487   30.5063  -71.0369 H         1 UNK         0.1032 
     82 H82       -72.5548   32.2208  -70.7640 H         1 UNK         0.1032 
     83 H83       -72.1846   32.5641  -73.2925 H         1 UNK         0.0461 
     84 H84       -70.7862   34.0936  -72.2620 H         1 UNK         0.3453 
     85 H85       -69.1666   33.6626  -71.7784 H         1 UNK         0.3453 
     86 H86       -71.7862   29.6409  -73.2095 H         1 UNK         0.2984 
     87 H87       -71.7311   29.4708  -76.7005 H         1 UNK         0.0554 
     88 H88       -69.2806   29.6246  -76.3592 H         1 UNK         0.0847 
     89 H89       -69.7853   27.9481  -76.5011 H         1 UNK         0.0847 
     90 H90       -69.3891   28.6235  -74.9202 H         1 UNK         0.0847 
     91 H91       -72.9047   27.8862  -75.8143 H         1 UNK         0.3141 
     92 H92       -72.3064   25.4770  -73.2871 H         1 UNK         0.0743 
     93 H93       -74.1385   26.8138  -72.3225 H         1 UNK         0.0784 
     94 H94       -74.8094   27.1278  -73.9204 H         1 UNK         0.0784 
     95 H95       -74.8135   25.4963  -73.2606 H         1 UNK         0.0784 
     96 H96       -73.9612   25.4134  -75.6032 H         1 UNK         0.3213 
     97 H97       -71.4598   24.3268  -77.9227 H         1 UNK         0.0855 
     98 H98       -73.8880   22.9541  -76.6494 H         1 UNK         0.0814 
     99 H99       -72.2715   22.2848  -76.7874 H         1 UNK         0.0814 
    100 H100      -73.2174   22.5811  -78.2368 H         1 UNK         0.0814 
    101 H101      -74.2982   25.0807  -77.9254 H         1 UNK         0.3105 
    102 H102      -73.7409   28.3322  -79.1791 H         1 UNK         0.0547 
    103 H103      -73.4458   27.0157  -81.2777 H         1 UNK         0.0837 
    104 H104      -74.7183   25.9084  -80.7845 H         1 UNK         0.0837 
    105 H105      -75.0938   27.5981  -81.1251 H         1 UNK         0.0837 
    106 H106      -76.1093   26.7413  -78.8949 H         1 UNK         0.3020 
    107 H107      -76.6974   27.4543  -75.4610 H         1 UNK         0.1245 
    108 H108      -78.0908   28.5360  -77.9659 H         1 UNK         0.0781 
    109 H109      -77.3953   29.5394  -76.7261 H         1 UNK         0.0781 
    110 H110      -80.2519   30.1584  -74.4906 H         1 UNK         0.0836 
    111 H111      -78.8506   30.7367  -75.3425 H         1 UNK         0.0836 
    112 H112      -78.3317   26.0803  -77.2582 H         1 UNK         0.3022 
    113 H113      -77.1526   23.3925  -77.9936 H         1 UNK         0.0747 
    114 H114      -77.7458   21.5598  -76.3372 H         1 UNK         0.0793 
    115 H115      -77.3926   22.6895  -75.0285 H         1 UNK         0.0793 
    116 H116      -76.1260   22.2034  -76.1374 H         1 UNK         0.0793 
    117 H117      -79.3375   23.6440  -78.0913 H         1 UNK         0.3047 
    118 H118      -81.4346   24.6523  -77.5627 H         1 UNK         0.0822 
    119 H119      -82.9456   22.6878  -77.0942 H         1 UNK         0.0807 
    120 H120      -81.8722   22.1451  -75.8068 H         1 UNK         0.0807 
    121 H121      -81.3420   22.1016  -77.4829 H         1 UNK         0.0807 
    122 H122      -81.4406   25.0894  -74.8078 H         1 UNK         0.2946 
    123 H123      -83.8016   26.9413  -74.4046 H         1 UNK         0.1144 
    124 H124      -85.9290   25.7349  -74.4496 H         1 UNK         0.0793 
    125 H125      -85.4522   25.9520  -72.7747 H         1 UNK         0.0793 
    126 H126      -85.2585   24.3827  -73.5561 H         1 UNK         0.0793 
    127 H127      -82.2537   26.5642  -72.8764 H         1 UNK         0.2896 
@<TRIPOS>BOND
     1    1    2 1    
     2    1   67 1    
     3    1   68 1    
     4    1   69 1    
     5    2    3 2    
     6    2    4 am   BACKBONE|DICT|INTERRES
     7    4    5 1    
     8    4   70 1    
     9    5    6 1    
    10    5   65 1    
    11    5   71 1    
    12    6    7 1    
    13    6   72 1    
    14    6   73 1    
    15    7    8 1    
    16    8    9 1    
    17    8   74 1    
    18    8   75 1    
    19    9   10 ar   
    20    9   14 ar   
    21   10   11 ar   
    22   10   76 1    
    23   11   12 ar   
    24   11   48 1    
    25   12   13 ar   
    26   12   77 1    
    27   13   14 ar   
    28   13   15 1    
    29   14   78 1    
    30   15   16 1    
    31   15   79 1    
    32   15   80 1    
    33   16   17 1    
    34   17   18 1    
    35   17   81 1    
    36   17   82 1    
    37   18   19 1    
    38   18   22 1    
    39   18   83 1    
    40   19   20 am   BACKBONE|DICT|INTERRES
    41   19   21 2    
    42   20   84 1    
    43   20   85 1    
    44   22   23 am   BACKBONE|DICT|INTERRES
    45   22   86 1    
    46   23   24 2    
    47   23   25 1    
    48   25   26 1    
    49   25   27 1    
    50   25   87 1    
    51   26   88 1    
    52   26   89 1    
    53   26   90 1    
    54   27   28 am   BACKBONE|DICT|INTERRES
    55   27   91 1    
    56   28   29 2    
    57   28   30 1    
    58   30   31 1    
    59   30   32 1    
    60   30   92 1    
    61   31   93 1    
    62   31   94 1    
    63   31   95 1    
    64   32   33 am   BACKBONE|DICT|INTERRES
    65   32   96 1    
    66   33   34 2    
    67   33   35 1    
    68   35   36 1    
    69   35   37 1    
    70   35   97 1    
    71   36   98 1    
    72   36   99 1    
    73   36  100 1    
    74   37   38 am   BACKBONE|DICT|INTERRES
    75   37  101 1    
    76   38   39 2    
    77   38   40 1    
    78   40   41 1    
    79   40   42 1    
    80   40  102 1    
    81   41  103 1    
    82   41  104 1    
    83   41  105 1    
    84   42   43 am   BACKBONE|DICT|INTERRES
    85   42  106 1    
    86   43   44 2    
    87   43   45 1    
    88   45   46 1    
    89   45   49 1    
    90   45  107 1    
    91   46   47 1    
    92   46  108 1    
    93   46  109 1    
    94   47   48 1    
    95   48  110 1    
    96   48  111 1    
    97   49   50 am   BACKBONE|DICT|INTERRES
    98   49  112 1    
    99   50   51 2    
   100   50   52 1    
   101   52   53 1    
   102   52   54 1    
   103   52  113 1    
   104   53  114 1    
   105   53  115 1    
   106   53  116 1    
   107   54   55 am   BACKBONE|DICT|INTERRES
   108   54  117 1    
   109   55   56 2    
   110   55   57 1    
   111   57   58 1    
   112   57   59 1    
   113   57  118 1    
   114   58  119 1    
   115   58  120 1    
   116   58  121 1    
   117   59   60 am   BACKBONE|DICT|INTERRES
   118   59  122 1    
   119   60   61 2    
   120   60   62 1    
   121   62   63 1    
   122   62   64 1    
   123   62  123 1    
   124   63  124 1    
   125   63  125 1    
   126   63  126 1    
   127   64   65 am   BACKBONE|DICT|INTERRES
   128   64  127 1    
   129   65   66 2    
@<TRIPOS>SUBSTRUCTURE
     1 UNK         1 GROUP             0       ****    0 ROOT    
