@<TRIPOS>MOLECULE
3R135
127   129    1
SMALL
USER_CHARGES


@<TRIPOS>ATOM
      1 CA        -77.0591   26.3767  -71.8850 C.3       0 UNK        -0.1998 
      2 C         -78.4241   25.9165  -71.4029 C.2       0 UNK         0.4909 
      3 O         -78.5533   24.8086  -70.8829 O.2       0 UNK        -0.5240 
      4 N         -79.4452   26.7652  -71.5723 N.am      1 UNK        -0.4739 
      5 CA        -80.8141   26.5389  -71.0817 C.3       1 UNK         0.0864 
      6 C6        -81.5620   27.8717  -70.8256 C.3       11 UNK        -0.0881 
      7 S7        -80.7033   28.8965  -69.5796 S.3       11 UNK        -0.2682 
      8 C8        -80.3728   30.4402  -70.4871 C.3       11 UNK         0.0289 
      9 C9        -79.4203   30.2445  -71.6592 C.ar      11 UNK        -0.0687 
     10 C10       -79.8985   30.3186  -72.9698 C.ar      11 UNK        -0.0823 
     11 C11       -79.0337   30.1839  -74.0596 C.ar      11 UNK        -0.0830 
     12 C12       -77.6686   29.9718  -73.8207 C.ar      11 UNK        -0.1021 
     13 C13       -77.1785   29.8815  -72.5148 C.ar      11 UNK        -0.0753 
     14 C14       -78.0583   30.0239  -71.4373 C.ar      11 UNK        -0.0933 
     15 C15       -75.7014   29.6168  -72.2665 C.3       11 UNK         0.0166 
     16 S16       -74.7105   31.1341  -72.4187 S.3       11 UNK        -0.2615 
     17 C17       -73.3853   30.8289  -71.1976 C.3       11 UNK        -0.0865 
     18 CA        -72.0261   30.4010  -71.8261 C.3       10 UNK         0.0862 
     19 C         -70.8722   30.3709  -70.7759 C.2       10 UNK         0.5551 
     20 N         -69.8938   29.4808  -70.8924 N.am      10 UNK        -0.7319 
     21 O         -70.8422   31.1856  -69.8563 O.2       10 UNK        -0.5018 
     22 N         -72.1019   29.1924  -72.6695 N.am      10 UNK        -0.4509 
     23 C         -72.4933   27.9663  -72.3008 C.2       10 UNK         0.4899 
     24 O         -72.9517   27.7071  -71.1874 O.2       10 UNK        -0.4839 
     25 CA        -72.3265   26.8320  -73.3413 C.3       9 UNK         0.0222 
     26 CB        -73.0971   25.5605  -72.9454 C.3       9 UNK        -0.1966 
     27 N         -72.6955   27.1931  -74.7174 N.am      9 UNK        -0.4218 
     28 C         -71.9959   27.9969  -75.5328 C.2       9 UNK         0.5020 
     29 O         -70.9679   28.5833  -75.1863 O.2       9 UNK        -0.5274 
     30 CA        -72.5468   28.1926  -76.9569 C.3       8 UNK         0.0270 
     31 CB        -71.5676   28.9339  -77.8924 C.3       8 UNK        -0.1976 
     32 N         -73.0063   26.9417  -77.5674 N.am      8 UNK        -0.4313 
     33 C         -72.2875   25.8394  -77.8380 C.2       8 UNK         0.5041 
     34 O         -71.0799   25.7361  -77.6183 O.2       8 UNK        -0.5577 
     35 CA        -73.0320   24.6345  -78.4513 C.3       7 UNK         0.0284 
     36 CB        -73.0078   23.4351  -77.4879 C.3       7 UNK        -0.1958 
     37 N         -74.4219   24.9386  -78.8022 N.am      7 UNK        -0.4454 
     38 C         -74.8098   25.5923  -79.9061 C.2       7 UNK         0.5089 
     39 O         -74.0486   25.9056  -80.8211 O.2       7 UNK        -0.5125 
     40 CA        -76.2898   26.0103  -79.9761 C.3       6 UNK         0.0408 
     41 CB        -77.1032   24.9971  -80.7964 C.3       6 UNK        -0.1791 
     42 N         -76.8959   26.1832  -78.6491 N.am      6 UNK        -0.4762 
     43 C         -76.5947   27.1887  -77.8099 C.2       6 UNK         0.5007 
     44 O         -75.7660   28.0588  -78.0756 O.2       6 UNK        -0.5032 
     45 CA        -77.2677   27.1873  -76.4181 C.3       5 UNK         0.0783 
     46 C46       -78.6726   27.8369  -76.4628 C.3       11 UNK        -0.0857 
     47 S47       -78.6178   29.6264  -76.8213 S.3       11 UNK        -0.2512 
     48 C48       -79.6215   30.3206  -75.4653 C.3       11 UNK         0.0225 
     49 N         -77.3194   25.8379  -75.8491 N.am      5 UNK        -0.4615 
     50 C         -76.2414   25.0935  -75.5579 C.2       4 UNK         0.5053 
     51 O         -75.0960   25.5469  -75.5645 O.2       4 UNK        -0.5105 
     52 CA        -76.4518   23.5890  -75.2729 C.3       4 UNK         0.0263 
     53 CB        -76.2131   23.2564  -73.7935 C.3       4 UNK        -0.1981 
     54 N         -77.7678   23.0753  -75.6637 N.am      4 UNK        -0.4224 
     55 C         -78.2562   23.0485  -76.9119 C.2       3 UNK         0.4895 
     56 O         -77.5991   23.3649  -77.9024 O.2       3 UNK        -0.5091 
     57 CA        -79.7438   22.6814  -77.0811 C.3       3 UNK         0.0250 
     58 CB        -79.8841   21.2147  -77.5177 C.3       3 UNK        -0.1996 
     59 N         -80.5800   22.9169  -75.8934 N.am      3 UNK        -0.4254 
     60 C         -80.7205   24.0847  -75.2464 C.2       2 UNK         0.5004 
     61 O         -80.1271   25.1144  -75.5759 O.2       2 UNK        -0.5226 
     62 CA        -81.6171   24.1044  -73.9973 C.3       2 UNK         0.0269 
     63 CB        -81.7592   22.7182  -73.3231 C.3       2 UNK        -0.1926 
     64 N         -81.0550   25.0786  -73.0626 N.am      2 UNK        -0.4687 
     65 C         -81.6415   25.5777  -71.9684 C.2       1 UNK         0.5165 
     66 O         -82.7942   25.2966  -71.6358 O.2       1 UNK        -0.5079 
     67 H67       -77.1224   26.8451  -72.8671 H         1 UNK         0.0900 
     68 H68       -76.3679   25.5388  -71.9473 H         1 UNK         0.0900 
     69 H69       -76.6433   27.0913  -71.1772 H         1 UNK         0.0900 
     70 H70       -79.2766   27.6734  -71.9840 H         1 UNK         0.2959 
     71 H71       -80.7354   26.0309  -70.1176 H         1 UNK         0.1079 
     72 H72       -81.6917   28.4267  -71.7554 H         1 UNK         0.0837 
     73 H73       -82.5681   27.6822  -70.4465 H         1 UNK         0.0837 
     74 H74       -81.3199   30.8668  -70.8211 H         1 UNK         0.0685 
     75 H75       -79.9417   31.1659  -69.7960 H         1 UNK         0.0685 
     76 H76       -80.9505   30.5012  -73.1436 H         1 UNK         0.1434 
     77 H77       -76.9736   29.8898  -74.6436 H         1 UNK         0.1329 
     78 H78       -77.6853   29.9662  -70.4236 H         1 UNK         0.1335 
     79 H79       -75.5707   29.1833  -71.2748 H         1 UNK         0.0680 
     80 H80       -75.3305   28.8753  -72.9757 H         1 UNK         0.0680 
     81 H81       -73.7086   30.1061  -70.4480 H         1 UNK         0.1032 
     82 H82       -73.2596   31.7650  -70.6505 H         1 UNK         0.1032 
     83 H83       -71.7373   31.1964  -72.5139 H         1 UNK         0.0461 
     84 H84       -69.8926   28.8211  -71.6534 H         1 UNK         0.3453 
     85 H85       -69.1465   29.4757  -70.2160 H         1 UNK         0.3453 
     86 H86       -71.6888   29.2760  -73.5946 H         1 UNK         0.2984 
     87 H87       -71.2651   26.5766  -73.3449 H         1 UNK         0.0554 
     88 H88       -74.1680   25.7526  -72.8886 H         1 UNK         0.0847 
     89 H89       -72.7776   25.1888  -71.9710 H         1 UNK         0.0847 
     90 H90       -72.9365   24.7570  -73.6647 H         1 UNK         0.0847 
     91 H91       -73.5286   26.7416  -75.0853 H         1 UNK         0.3141 
     92 H92       -73.4317   28.8214  -76.8493 H         1 UNK         0.0743 
     93 H93       -70.6296   28.3905  -78.0105 H         1 UNK         0.0784 
     94 H94       -71.9994   29.0781  -78.8828 H         1 UNK         0.0784 
     95 H95       -71.3234   29.9216  -77.4994 H         1 UNK         0.0784 
     96 H96       -73.9943   26.9247  -77.7902 H         1 UNK         0.3213 
     97 H97       -72.4974   24.3503  -79.3603 H         1 UNK         0.0855 
     98 H98       -73.4369   23.6848  -76.5179 H         1 UNK         0.0814 
     99 H99       -71.9839   23.1043  -77.3085 H         1 UNK         0.0814 
    100 H100      -73.5552   22.5838  -77.8930 H         1 UNK         0.0814 
    101 H101      -75.1267   24.7148  -78.1140 H         1 UNK         0.3105 
    102 H102      -76.3357   26.9718  -80.4922 H         1 UNK         0.0547 
    103 H103      -76.7246   24.9339  -81.8174 H         1 UNK         0.0837 
    104 H104      -77.0520   23.9940  -80.3727 H         1 UNK         0.0837 
    105 H105      -78.1529   25.2840  -80.8583 H         1 UNK         0.0837 
    106 H106      -77.5155   25.4437  -78.3370 H         1 UNK         0.3020 
    107 H107      -76.6353   27.7830  -75.7565 H         1 UNK         0.1245 
    108 H108      -79.1712   27.6899  -75.5033 H         1 UNK         0.0781 
    109 H109      -79.3081   27.3473  -77.2033 H         1 UNK         0.0781 
    110 H110      -80.6079   29.8549  -75.5007 H         1 UNK         0.0836 
    111 H111      -79.7764   31.3813  -75.6669 H         1 UNK         0.0836 
    112 H112      -78.2440   25.4185  -75.7943 H         1 UNK         0.3022 
    113 H113      -75.7054   23.0538  -75.8625 H         1 UNK         0.0747 
    114 H114      -76.1809   22.1783  -73.6348 H         1 UNK         0.0793 
    115 H115      -75.2618   23.6567  -73.4441 H         1 UNK         0.0793 
    116 H116      -77.0009   23.6592  -73.1576 H         1 UNK         0.0793 
    117 H117      -78.3815   22.7917  -74.9145 H         1 UNK         0.3047 
    118 H118      -80.1351   23.3146  -77.8800 H         1 UNK         0.0822 
    119 H119      -80.9191   20.9669  -77.7539 H         1 UNK         0.0807 
    120 H120      -79.5411   20.5277  -76.7430 H         1 UNK         0.0807 
    121 H121      -79.2943   21.0156  -78.4139 H         1 UNK         0.0807 
    122 H122      -81.0920   22.1191  -75.5448 H         1 UNK         0.2946 
    123 H123      -82.6025   24.4540  -74.3122 H         1 UNK         0.1144 
    124 H124      -82.2458   21.9982  -73.9818 H         1 UNK         0.0793 
    125 H125      -82.3728   22.7691  -72.4240 H         1 UNK         0.0793 
    126 H126      -80.7901   22.3089  -73.0342 H         1 UNK         0.0793 
    127 H127      -80.1339   25.4162  -73.3083 H         1 UNK         0.2896 
@<TRIPOS>BOND
     1    1    2 1    
     2    1   67 1    
     3    1   68 1    
     4    1   69 1    
     5    2    3 2    
     6    2    4 am   BACKBONE|DICT|INTERRES
     7    4    5 1    
     8    4   70 1    
     9    5    6 1    
    10    5   65 1    
    11    5   71 1    
    12    6    7 1    
    13    6   72 1    
    14    6   73 1    
    15    7    8 1    
    16    8    9 1    
    17    8   74 1    
    18    8   75 1    
    19    9   10 ar   
    20    9   14 ar   
    21   10   11 ar   
    22   10   76 1    
    23   11   12 ar   
    24   11   48 1    
    25   12   13 ar   
    26   12   77 1    
    27   13   14 ar   
    28   13   15 1    
    29   14   78 1    
    30   15   16 1    
    31   15   79 1    
    32   15   80 1    
    33   16   17 1    
    34   17   18 1    
    35   17   81 1    
    36   17   82 1    
    37   18   19 1    
    38   18   22 1    
    39   18   83 1    
    40   19   20 am   BACKBONE|DICT|INTERRES
    41   19   21 2    
    42   20   84 1    
    43   20   85 1    
    44   22   23 am   BACKBONE|DICT|INTERRES
    45   22   86 1    
    46   23   24 2    
    47   23   25 1    
    48   25   26 1    
    49   25   27 1    
    50   25   87 1    
    51   26   88 1    
    52   26   89 1    
    53   26   90 1    
    54   27   28 am   BACKBONE|DICT|INTERRES
    55   27   91 1    
    56   28   29 2    
    57   28   30 1    
    58   30   31 1    
    59   30   32 1    
    60   30   92 1    
    61   31   93 1    
    62   31   94 1    
    63   31   95 1    
    64   32   33 am   BACKBONE|DICT|INTERRES
    65   32   96 1    
    66   33   34 2    
    67   33   35 1    
    68   35   36 1    
    69   35   37 1    
    70   35   97 1    
    71   36   98 1    
    72   36   99 1    
    73   36  100 1    
    74   37   38 am   BACKBONE|DICT|INTERRES
    75   37  101 1    
    76   38   39 2    
    77   38   40 1    
    78   40   41 1    
    79   40   42 1    
    80   40  102 1    
    81   41  103 1    
    82   41  104 1    
    83   41  105 1    
    84   42   43 am   BACKBONE|DICT|INTERRES
    85   42  106 1    
    86   43   44 2    
    87   43   45 1    
    88   45   46 1    
    89   45   49 1    
    90   45  107 1    
    91   46   47 1    
    92   46  108 1    
    93   46  109 1    
    94   47   48 1    
    95   48  110 1    
    96   48  111 1    
    97   49   50 am   BACKBONE|DICT|INTERRES
    98   49  112 1    
    99   50   51 2    
   100   50   52 1    
   101   52   53 1    
   102   52   54 1    
   103   52  113 1    
   104   53  114 1    
   105   53  115 1    
   106   53  116 1    
   107   54   55 am   BACKBONE|DICT|INTERRES
   108   54  117 1    
   109   55   56 2    
   110   55   57 1    
   111   57   58 1    
   112   57   59 1    
   113   57  118 1    
   114   58  119 1    
   115   58  120 1    
   116   58  121 1    
   117   59   60 am   BACKBONE|DICT|INTERRES
   118   59  122 1    
   119   60   61 2    
   120   60   62 1    
   121   62   63 1    
   122   62   64 1    
   123   62  123 1    
   124   63  124 1    
   125   63  125 1    
   126   63  126 1    
   127   64   65 am   BACKBONE|DICT|INTERRES
   128   64  127 1    
   129   65   66 2    
@<TRIPOS>SUBSTRUCTURE
     1 UNK         1 GROUP             0       ****    0 ROOT    
