@<TRIPOS>MOLECULE
3R135
127   129    1
SMALL
USER_CHARGES


@<TRIPOS>ATOM
      1 CA        -79.3220   24.9408  -70.7521 C.3       0 UNK        -0.1998 
      2 C         -79.9425   25.9133  -71.7442 C.2       0 UNK         0.4909 
      3 O         -79.2597   26.3719  -72.6600 O.2       0 UNK        -0.5240 
      4 N         -81.2432   26.1978  -71.5745 N.am      1 UNK        -0.4739 
      5 CA        -82.0712   27.1024  -72.3948 C.3       1 UNK         0.0864 
      6 C6        -81.6935   28.6019  -72.2373 C.3       11 UNK        -0.0881 
      7 S7        -81.7132   29.1446  -70.4877 S.3       11 UNK        -0.2682 
      8 C8        -80.4930   30.5034  -70.4557 C.3       11 UNK         0.0289 
      9 C9        -79.1471   30.0917  -71.0349 C.ar      11 UNK        -0.0687 
     10 C10       -78.6927   30.6719  -72.2224 C.ar      11 UNK        -0.0823 
     11 C11       -77.5115   30.2275  -72.8196 C.ar      11 UNK        -0.0830 
     12 C12       -76.7779   29.2038  -72.2139 C.ar      11 UNK        -0.1021 
     13 C13       -77.1992   28.6397  -71.0056 C.ar      11 UNK        -0.0753 
     14 C14       -78.3832   29.0964  -70.4171 C.ar      11 UNK        -0.0933 
     15 C15       -76.4257   27.4924  -70.3654 C.3       11 UNK         0.0166 
     16 S16       -74.7175   27.9376  -69.9091 S.3       11 UNK        -0.2615 
     17 C17       -73.7914   27.5447  -71.4348 C.3       11 UNK        -0.0865 
     18 CA        -73.1613   28.8015  -72.0984 C.3       10 UNK         0.0862 
     19 C         -71.7449   29.1047  -71.5177 C.2       10 UNK         0.5551 
     20 N         -70.6610   28.9038  -72.2602 N.am      10 UNK        -0.7319 
     21 O         -71.6276   29.5379  -70.3744 O.2       10 UNK        -0.5018 
     22 N         -73.2122   28.6951  -73.5644 N.am      10 UNK        -0.4509 
     23 C         -72.9703   29.6990  -74.4193 C.2       10 UNK         0.4899 
     24 O         -72.8696   30.8773  -74.0765 O.2       10 UNK        -0.4839 
     25 CA        -72.8037   29.3168  -75.9063 C.3       9 UNK         0.0222 
     26 CB        -71.8109   30.2400  -76.6438 C.3       9 UNK        -0.1966 
     27 N         -72.4564   27.9015  -76.1145 N.am      9 UNK        -0.4218 
     28 C         -71.3711   27.2595  -75.6511 C.2       9 UNK         0.5020 
     29 O         -70.4679   27.8144  -75.0233 O.2       9 UNK        -0.5274 
     30 CA        -71.3016   25.7376  -75.8478 C.3       8 UNK         0.0270 
     31 CB        -71.4099   25.0242  -74.4866 C.3       8 UNK        -0.1976 
     32 N         -72.3595   25.2260  -76.7253 N.am      8 UNK        -0.4313 
     33 C         -72.1453   24.7067  -77.9409 C.2       8 UNK         0.5041 
     34 O         -71.0451   24.6803  -78.4949 O.2       8 UNK        -0.5577 
     35 CA        -73.3519   24.0775  -78.6521 C.3       7 UNK         0.0284 
     36 CB        -73.6582   22.6901  -78.0627 C.3       7 UNK        -0.1958 
     37 N         -74.5607   24.8998  -78.6048 N.am      7 UNK        -0.4454 
     38 C         -74.7636   26.0015  -79.3399 C.2       7 UNK         0.5089 
     39 O         -73.9070   26.5175  -80.0580 O.2       7 UNK        -0.5125 
     40 CA        -76.1695   26.6186  -79.2781 C.3       6 UNK         0.0408 
     41 CB        -77.1771   25.7672  -80.0697 C.3       6 UNK        -0.1791 
     42 N         -76.6246   26.7631  -77.8947 N.am      6 UNK        -0.4762 
     43 C         -76.4305   27.8647  -77.1552 C.2       6 UNK         0.5007 
     44 O         -75.9054   28.8856  -77.5984 O.2       6 UNK        -0.5032 
     45 CA        -76.8637   27.8257  -75.6705 C.3       5 UNK         0.0783 
     46 C46       -78.2097   28.5556  -75.4318 C.3       11 UNK        -0.0857 
     47 S47       -78.1175   30.3782  -75.5383 S.3       11 UNK        -0.2512 
     48 C48       -77.0438   30.8343  -74.1341 C.3       11 UNK         0.0225 
     49 N         -76.9099   26.4688  -75.1190 N.am      5 UNK        -0.4615 
     50 C         -75.8461   25.6785  -74.9344 C.2       4 UNK         0.5053 
     51 O         -74.6871   26.0248  -75.1668 O.2       4 UNK        -0.5105 
     52 CA        -76.1300   24.2413  -74.4680 C.3       4 UNK         0.0263 
     53 CB        -76.2192   24.1798  -72.9368 C.3       4 UNK        -0.1981 
     54 N         -77.3413   23.6605  -75.0652 N.am      4 UNK        -0.4224 
     55 C         -77.5139   23.4426  -76.3765 C.2       3 UNK         0.4895 
     56 O         -76.6954   23.7805  -77.2298 O.2       3 UNK        -0.5091 
     57 CA        -78.8143   22.7616  -76.8323 C.3       3 UNK         0.0250 
     58 CB        -78.9291   21.3208  -76.2931 C.3       3 UNK        -0.1996 
     59 N         -80.0207   23.5552  -76.5653 N.am      3 UNK        -0.4254 
     60 C         -80.5597   23.8635  -75.3789 C.2       2 UNK         0.5004 
     61 O         -80.1081   23.4841  -74.2936 O.2       2 UNK        -0.5226 
     62 CA        -81.8281   24.7275  -75.4203 C.3       2 UNK         0.0269 
     63 CB        -83.0660   23.8679  -75.7273 C.3       2 UNK        -0.1926 
     64 N         -81.9946   25.3525  -74.1137 N.am      2 UNK        -0.4687 
     65 C         -82.1542   26.6596  -73.8771 C.2       1 UNK         0.5165 
     66 O         -82.3546   27.4902  -74.7655 O.2       1 UNK        -0.5079 
     67 H67       -80.0103   24.6846  -69.9468 H         1 UNK         0.0900 
     68 H68       -78.4290   25.3727  -70.3049 H         1 UNK         0.0900 
     69 H69       -79.0401   24.0200  -71.2621 H         1 UNK         0.0900 
     70 H70       -81.7318   25.7733  -70.7984 H         1 UNK         0.2959 
     71 H71       -83.0888   26.9906  -72.0172 H         1 UNK         0.1079 
     72 H72       -82.3908   29.2369  -72.7866 H         1 UNK         0.0837 
     73 H73       -80.7131   28.7745  -72.6812 H         1 UNK         0.0837 
     74 H74       -80.9049   31.3561  -70.9977 H         1 UNK         0.0685 
     75 H75       -80.3548   30.8321  -69.4248 H         1 UNK         0.0685 
     76 H76       -79.2774   31.4417  -72.7078 H         1 UNK         0.1434 
     77 H77       -75.8846   28.8374  -72.6929 H         1 UNK         0.1329 
     78 H78       -78.7419   28.6451  -69.5022 H         1 UNK         0.1335 
     79 H79       -76.4297   26.6329  -71.0359 H         1 UNK         0.0680 
     80 H80       -76.9305   27.1632  -69.4559 H         1 UNK         0.0680 
     81 H81       -73.0322   26.7949  -71.2020 H         1 UNK         0.1032 
     82 H82       -74.4670   27.0436  -72.1292 H         1 UNK         0.1032 
     83 H83       -73.7768   29.6674  -71.8461 H         1 UNK         0.0461 
     84 H84       -70.7266   28.5553  -73.2112 H         1 UNK         0.3453 
     85 H85       -69.7562   29.1103  -71.8689 H         1 UNK         0.3453 
     86 H86       -73.2873   27.7627  -73.9455 H         1 UNK         0.2984 
     87 H87       -73.7810   29.4655  -76.3597 H         1 UNK         0.0554 
     88 H88       -71.7141   29.9609  -77.6931 H         1 UNK         0.0847 
     89 H89       -70.8175   30.2096  -76.1949 H         1 UNK         0.0847 
     90 H90       -72.1465   31.2775  -76.6170 H         1 UNK         0.0847 
     91 H91       -73.1577   27.3436  -76.5809 H         1 UNK         0.3141 
     92 H92       -70.3154   25.5192  -76.2635 H         1 UNK         0.0743 
     93 H93       -72.3636   25.2235  -73.9959 H         1 UNK         0.0784 
     94 H94       -71.3116   23.9440  -74.5984 H         1 UNK         0.0784 
     95 H95       -70.6205   25.3499  -73.8077 H         1 UNK         0.0784 
     96 H96       -73.3005   25.2334  -76.3417 H         1 UNK         0.3213 
     97 H97       -73.0802   23.9412  -79.7016 H         1 UNK         0.0855 
     98 H98       -72.7797   22.0445  -78.1038 H         1 UNK         0.0814 
     99 H99       -74.4529   22.1911  -78.6181 H         1 UNK         0.0814 
    100 H100      -73.9704   22.7518  -77.0193 H         1 UNK         0.0814 
    101 H101      -75.3402   24.5260  -78.0634 H         1 UNK         0.3105 
    102 H102      -76.1264   27.5988  -79.7589 H         1 UNK         0.0547 
    103 H103      -76.8636   25.6621  -81.1092 H         1 UNK         0.0837 
    104 H104      -77.2812   24.7622  -79.6597 H         1 UNK         0.0837 
    105 H105      -78.1646   26.2289  -80.0761 H         1 UNK         0.0837 
    106 H106      -77.0045   25.9362  -77.4524 H         1 UNK         0.3020 
    107 H107      -76.0833   28.3479  -75.1162 H         1 UNK         0.1245 
    108 H108      -78.6029   28.3091  -74.4442 H         1 UNK         0.0781 
    109 H109      -78.9679   28.2052  -76.1348 H         1 UNK         0.0781 
    110 H110      -77.0349   31.9214  -74.0414 H         1 UNK         0.0836 
    111 H111      -76.0141   30.5489  -74.3527 H         1 UNK         0.0836 
    112 H112      -77.8190   26.1219  -74.8439 H         1 UNK         0.3022 
    113 H113      -75.2842   23.6261  -74.7822 H         1 UNK         0.0747 
    114 H114      -76.3646   23.1578  -72.5866 H         1 UNK         0.0793 
    115 H115      -77.0434   24.7846  -72.5615 H         1 UNK         0.0793 
    116 H116      -75.3035   24.5528  -72.4761 H         1 UNK         0.0793 
    117 H117      -78.1143   23.4308  -74.4469 H         1 UNK         0.3047 
    118 H118      -78.7531   22.6857  -77.9195 H         1 UNK         0.0822 
    119 H119      -78.9927   21.2854  -75.2053 H         1 UNK         0.0807 
    120 H120      -78.0602   20.7286  -76.5833 H         1 UNK         0.0807 
    121 H121      -79.8099   20.8192  -76.6940 H         1 UNK         0.0807 
    122 H122      -80.4718   23.9226  -77.3924 H         1 UNK         0.2946 
    123 H123      -81.7060   25.4880  -76.1954 H         1 UNK         0.1144 
    124 H124      -82.9822   23.3898  -76.7042 H         1 UNK         0.0793 
    125 H125      -83.2021   23.0780  -74.9873 H         1 UNK         0.0793 
    126 H126      -83.9729   24.4728  -75.7404 H         1 UNK         0.0793 
    127 H127      -81.7356   24.7627  -73.3334 H         1 UNK         0.2896 
@<TRIPOS>BOND
     1    1    2 1    
     2    1   67 1    
     3    1   68 1    
     4    1   69 1    
     5    2    3 2    
     6    2    4 am   BACKBONE|DICT|INTERRES
     7    4    5 1    
     8    4   70 1    
     9    5    6 1    
    10    5   65 1    
    11    5   71 1    
    12    6    7 1    
    13    6   72 1    
    14    6   73 1    
    15    7    8 1    
    16    8    9 1    
    17    8   74 1    
    18    8   75 1    
    19    9   10 ar   
    20    9   14 ar   
    21   10   11 ar   
    22   10   76 1    
    23   11   12 ar   
    24   11   48 1    
    25   12   13 ar   
    26   12   77 1    
    27   13   14 ar   
    28   13   15 1    
    29   14   78 1    
    30   15   16 1    
    31   15   79 1    
    32   15   80 1    
    33   16   17 1    
    34   17   18 1    
    35   17   81 1    
    36   17   82 1    
    37   18   19 1    
    38   18   22 1    
    39   18   83 1    
    40   19   20 am   BACKBONE|DICT|INTERRES
    41   19   21 2    
    42   20   84 1    
    43   20   85 1    
    44   22   23 am   BACKBONE|DICT|INTERRES
    45   22   86 1    
    46   23   24 2    
    47   23   25 1    
    48   25   26 1    
    49   25   27 1    
    50   25   87 1    
    51   26   88 1    
    52   26   89 1    
    53   26   90 1    
    54   27   28 am   BACKBONE|DICT|INTERRES
    55   27   91 1    
    56   28   29 2    
    57   28   30 1    
    58   30   31 1    
    59   30   32 1    
    60   30   92 1    
    61   31   93 1    
    62   31   94 1    
    63   31   95 1    
    64   32   33 am   BACKBONE|DICT|INTERRES
    65   32   96 1    
    66   33   34 2    
    67   33   35 1    
    68   35   36 1    
    69   35   37 1    
    70   35   97 1    
    71   36   98 1    
    72   36   99 1    
    73   36  100 1    
    74   37   38 am   BACKBONE|DICT|INTERRES
    75   37  101 1    
    76   38   39 2    
    77   38   40 1    
    78   40   41 1    
    79   40   42 1    
    80   40  102 1    
    81   41  103 1    
    82   41  104 1    
    83   41  105 1    
    84   42   43 am   BACKBONE|DICT|INTERRES
    85   42  106 1    
    86   43   44 2    
    87   43   45 1    
    88   45   46 1    
    89   45   49 1    
    90   45  107 1    
    91   46   47 1    
    92   46  108 1    
    93   46  109 1    
    94   47   48 1    
    95   48  110 1    
    96   48  111 1    
    97   49   50 am   BACKBONE|DICT|INTERRES
    98   49  112 1    
    99   50   51 2    
   100   50   52 1    
   101   52   53 1    
   102   52   54 1    
   103   52  113 1    
   104   53  114 1    
   105   53  115 1    
   106   53  116 1    
   107   54   55 am   BACKBONE|DICT|INTERRES
   108   54  117 1    
   109   55   56 2    
   110   55   57 1    
   111   57   58 1    
   112   57   59 1    
   113   57  118 1    
   114   58  119 1    
   115   58  120 1    
   116   58  121 1    
   117   59   60 am   BACKBONE|DICT|INTERRES
   118   59  122 1    
   119   60   61 2    
   120   60   62 1    
   121   62   63 1    
   122   62   64 1    
   123   62  123 1    
   124   63  124 1    
   125   63  125 1    
   126   63  126 1    
   127   64   65 am   BACKBONE|DICT|INTERRES
   128   64  127 1    
   129   65   66 2    
@<TRIPOS>SUBSTRUCTURE
     1 UNK         1 GROUP             0       ****    0 ROOT    
