@<TRIPOS>MOLECULE
3R135
127   129    1
SMALL
USER_CHARGES


@<TRIPOS>ATOM
      1 CA        -84.0015   24.1794  -72.3587 C.3       0 UNK        -0.1998 
      2 C         -83.3494   25.1512  -73.3312 C.2       0 UNK         0.4909 
      3 O         -83.1516   24.8122  -74.4994 O.2       0 UNK        -0.5240 
      4 N         -83.0257   26.3619  -72.8592 N.am      1 UNK        -0.4739 
      5 CA        -82.3577   27.4158  -73.6299 C.3       1 UNK         0.0864 
      6 C6        -82.4413   28.7988  -72.9282 C.3       11 UNK        -0.0881 
      7 S7        -81.8770   28.8186  -71.1891 S.3       11 UNK        -0.2682 
      8 C8        -80.5314   30.0531  -71.2164 C.3       11 UNK         0.0289 
      9 C9        -79.1927   29.4714  -71.6563 C.ar      11 UNK        -0.0687 
     10 C10       -78.6413   28.3880  -70.9643 C.ar      11 UNK        -0.0823 
     11 C11       -77.3991   27.8656  -71.3313 C.ar      11 UNK        -0.0830 
     12 C12       -76.7062   28.4355  -72.4007 C.ar      11 UNK        -0.1021 
     13 C13       -77.2286   29.5344  -73.0894 C.ar      11 UNK        -0.0753 
     14 C14       -78.4776   30.0449  -72.7151 C.ar      11 UNK        -0.0933 
     15 C15       -76.4576   30.1420  -74.2571 C.3       11 UNK         0.0166 
     16 S16       -75.1222   31.2590  -73.7198 S.3       11 UNK        -0.2615 
     17 C17       -73.9257   30.0771  -73.0136 C.3       11 UNK        -0.0865 
     18 CA        -72.4688   30.5960  -73.0307 C.3       10 UNK         0.0862 
     19 C         -71.5806   29.7209  -72.1032 C.2       10 UNK         0.5551 
     20 N         -71.1682   30.2454  -70.9572 N.am      10 UNK        -0.7319 
     21 O         -71.3119   28.5568  -72.3901 O.2       10 UNK        -0.5018 
     22 N         -71.9319   30.6682  -74.3988 N.am      10 UNK        -0.4509 
     23 C         -70.7646   31.2464  -74.7151 C.2       10 UNK         0.4899 
     24 O         -70.0751   31.8658  -73.9023 O.2       10 UNK        -0.4839 
     25 CA        -70.2923   31.1489  -76.1814 C.3       9 UNK         0.0222 
     26 CB        -68.7646   31.3235  -76.3247 C.3       9 UNK        -0.1966 
     27 N         -70.7365   29.9407  -76.8868 N.am      9 UNK        -0.4218 
     28 C         -70.4857   28.6608  -76.5710 C.2       9 UNK         0.5020 
     29 O         -69.8374   28.2992  -75.5872 O.2       9 UNK        -0.5274 
     30 CA        -71.0374   27.6127  -77.5591 C.3       8 UNK         0.0270 
     31 CB        -70.1785   26.3341  -77.5677 C.3       8 UNK        -0.1976 
     32 N         -72.4437   27.2176  -77.3948 N.am      8 UNK        -0.4313 
     33 C         -73.5060   27.9021  -76.9515 C.2       8 UNK         0.5041 
     34 O         -73.4565   29.0086  -76.4134 O.2       8 UNK        -0.5577 
     35 CA        -74.8929   27.2731  -77.1945 C.3       7 UNK         0.0284 
     36 CB        -75.4061   27.6378  -78.5996 C.3       7 UNK        -0.1958 
     37 N         -75.0435   25.8301  -76.9571 N.am      7 UNK        -0.4454 
     38 C         -74.4229   24.7790  -77.5122 C.2       7 UNK         0.5089 
     39 O         -73.5047   24.8782  -78.3275 O.2       7 UNK        -0.5125 
     40 CA        -74.9360   23.3776  -77.1128 C.3       6 UNK         0.0408 
     41 CB        -73.8213   22.3106  -77.1320 C.3       6 UNK        -0.1791 
     42 N         -75.6803   23.3542  -75.8452 N.am      6 UNK        -0.4762 
     43 C         -75.2148   23.6097  -74.6107 C.2       6 UNK         0.5007 
     44 O         -74.0276   23.8242  -74.3646 O.2       6 UNK        -0.5032 
     45 CA        -76.2397   23.6687  -73.4561 C.3       5 UNK         0.0783 
     46 C46       -76.1814   25.0421  -72.7443 C.3       11 UNK        -0.0857 
     47 S47       -77.2490   25.0949  -71.2657 S.3       11 UNK        -0.2512 
     48 C48       -76.7934   26.7054  -70.5545 C.3       11 UNK         0.0225 
     49 N         -77.5992   23.3908  -73.9269 N.am      5 UNK        -0.4615 
     50 C         -78.2379   22.2215  -73.8161 C.2       4 UNK         0.5053 
     51 O         -77.7407   21.2132  -73.3142 O.2       4 UNK        -0.5105 
     52 CA        -79.6769   22.1613  -74.3617 C.3       4 UNK         0.0263 
     53 CB        -80.6898   22.3353  -73.2201 C.3       4 UNK        -0.1981 
     54 N         -79.9499   23.1611  -75.3988 N.am      4 UNK        -0.4224 
     55 C         -79.4151   23.1411  -76.6280 C.2       3 UNK         0.4895 
     56 O         -78.6588   22.2579  -77.0323 O.2       3 UNK        -0.5091 
     57 CA        -79.7365   24.3311  -77.5466 C.3       3 UNK         0.0250 
     58 CB        -81.0586   24.0938  -78.2934 C.3       3 UNK        -0.1996 
     59 N         -79.7937   25.6203  -76.8508 N.am      3 UNK        -0.4254 
     60 C         -78.7822   26.1765  -76.1681 C.2       2 UNK         0.5004 
     61 O         -77.6911   25.6376  -75.9899 O.2       2 UNK        -0.5226 
     62 CA        -79.0365   27.5603  -75.5576 C.3       2 UNK         0.0269 
     63 CB        -78.7448   28.6657  -76.5847 C.3       2 UNK        -0.1926 
     64 N         -80.3960   27.7301  -75.0453 N.am      2 UNK        -0.4687 
     65 C         -80.9111   27.0430  -74.0165 C.2       1 UNK         0.5165 
     66 O         -80.2990   26.1642  -73.4041 O.2       1 UNK        -0.5079 
     67 H67       -84.9031   23.7548  -72.7994 H         1 UNK         0.0900 
     68 H68       -83.3194   23.3637  -72.1239 H         1 UNK         0.0900 
     69 H69       -84.2808   24.6670  -71.4248 H         1 UNK         0.0900 
     70 H70       -83.1688   26.5750  -71.8821 H         1 UNK         0.2959 
     71 H71       -82.9084   27.5002  -74.5699 H         1 UNK         0.1079 
     72 H72       -83.4811   29.1294  -72.9271 H         1 UNK         0.0837 
     73 H73       -81.9053   29.5579  -73.5008 H         1 UNK         0.0837 
     74 H74       -80.4131   30.4516  -70.2079 H         1 UNK         0.0685 
     75 H75       -80.8216   30.8986  -71.8419 H         1 UNK         0.0685 
     76 H76       -79.1830   27.9507  -70.1367 H         1 UNK         0.1434 
     77 H77       -75.7536   28.0190  -72.6913 H         1 UNK         0.1329 
     78 H78       -78.8898   30.8919  -73.2461 H         1 UNK         0.1335 
     79 H79       -76.0403   29.3518  -74.8805 H         1 UNK         0.0680 
     80 H80       -77.1343   30.7078  -74.8982 H         1 UNK         0.0680 
     81 H81       -73.9797   29.1313  -73.5555 H         1 UNK         0.1032 
     82 H82       -74.2466   29.8715  -71.9902 H         1 UNK         0.1032 
     83 H83       -72.4746   31.6130  -72.6324 H         1 UNK         0.0461 
     84 H84       -70.6070   29.6852  -70.3348 H         1 UNK         0.3453 
     85 H85       -71.3882   31.1985  -70.7125 H         1 UNK         0.3453 
     86 H86       -72.4394   30.1535  -75.1138 H         1 UNK         0.2984 
     87 H87       -70.7654   31.9850  -76.6982 H         1 UNK         0.0554 
     88 H88       -68.4397   32.2890  -75.9351 H         1 UNK         0.0847 
     89 H89       -68.4551   31.2792  -77.3688 H         1 UNK         0.0847 
     90 H90       -68.2184   30.5528  -75.7797 H         1 UNK         0.0847 
     91 H91       -71.3413   30.1069  -77.6798 H         1 UNK         0.3141 
     92 H92       -70.9610   28.0508  -78.5559 H         1 UNK         0.0743 
     93 H93       -69.1222   26.5697  -77.7055 H         1 UNK         0.0784 
     94 H94       -70.4681   25.6650  -78.3785 H         1 UNK         0.0784 
     95 H95       -70.2719   25.7830  -76.6309 H         1 UNK         0.0784 
     96 H96       -72.6783   26.3116  -77.8018 H         1 UNK         0.3213 
     97 H97       -75.5620   27.7393  -76.4723 H         1 UNK         0.0855 
     98 H98       -74.7967   27.1860  -79.3830 H         1 UNK         0.0814 
     99 H99       -75.3883   28.7175  -78.7545 H         1 UNK         0.0814 
    100 H100      -76.4347   27.3066  -78.7438 H         1 UNK         0.0814 
    101 H101      -75.8316   25.6004  -76.3554 H         1 UNK         0.3105 
    102 H102      -75.6616   23.1021  -77.8794 H         1 UNK         0.0547 
    103 H103      -74.2044   21.3304  -76.8491 H         1 UNK         0.0837 
    104 H104      -73.0050   22.5620  -76.4546 H         1 UNK         0.0837 
    105 H105      -73.3920   22.2126  -78.1297 H         1 UNK         0.0837 
    106 H106      -76.6775   23.2054  -75.9371 H         1 UNK         0.3020 
    107 H107      -75.9344   22.9031  -72.7390 H         1 UNK         0.1245 
    108 H108      -76.4906   25.8331  -73.4295 H         1 UNK         0.0781 
    109 H109      -75.1616   25.2764  -72.4326 H         1 UNK         0.0781 
    110 H110      -75.7070   26.7985  -70.5141 H         1 UNK         0.0836 
    111 H111      -77.1352   26.7375  -69.5189 H         1 UNK         0.0836 
    112 H112      -78.0760   24.1693  -74.3642 H         1 UNK         0.3022 
    113 H113      -79.8199   21.1708  -74.7989 H         1 UNK         0.0747 
    114 H114      -81.7107   22.2048  -73.5786 H         1 UNK         0.0793 
    115 H115      -80.5255   21.5975  -72.4335 H         1 UNK         0.0793 
    116 H116      -80.6147   23.3235  -72.7633 H         1 UNK         0.0793 
    117 H117      -80.5517   23.9329  -75.1426 H         1 UNK         0.3047 
    118 H118      -78.9338   24.3965  -78.2844 H         1 UNK         0.0822 
    119 H119      -81.2471   24.8779  -79.0270 H         1 UNK         0.0807 
    120 H120      -81.9085   24.0607  -77.6100 H         1 UNK         0.0807 
    121 H121      -81.0374   23.1462  -78.8338 H         1 UNK         0.0807 
    122 H122      -80.6584   26.1366  -76.9209 H         1 UNK         0.2946 
    123 H123      -78.3499   27.6654  -74.7166 H         1 UNK         0.1144 
    124 H124      -78.9001   29.6561  -76.1575 H         1 UNK         0.0793 
    125 H125      -79.3835   28.5800  -77.4647 H         1 UNK         0.0793 
    126 H126      -77.7121   28.6213  -76.9287 H         1 UNK         0.0793 
    127 H127      -80.9611   28.4354  -75.4962 H         1 UNK         0.2896 
@<TRIPOS>BOND
     1    1    2 1    
     2    1   67 1    
     3    1   68 1    
     4    1   69 1    
     5    2    3 2    
     6    2    4 am   BACKBONE|DICT|INTERRES
     7    4    5 1    
     8    4   70 1    
     9    5    6 1    
    10    5   65 1    
    11    5   71 1    
    12    6    7 1    
    13    6   72 1    
    14    6   73 1    
    15    7    8 1    
    16    8    9 1    
    17    8   74 1    
    18    8   75 1    
    19    9   10 ar   
    20    9   14 ar   
    21   10   11 ar   
    22   10   76 1    
    23   11   12 ar   
    24   11   48 1    
    25   12   13 ar   
    26   12   77 1    
    27   13   14 ar   
    28   13   15 1    
    29   14   78 1    
    30   15   16 1    
    31   15   79 1    
    32   15   80 1    
    33   16   17 1    
    34   17   18 1    
    35   17   81 1    
    36   17   82 1    
    37   18   19 1    
    38   18   22 1    
    39   18   83 1    
    40   19   20 am   BACKBONE|DICT|INTERRES
    41   19   21 2    
    42   20   84 1    
    43   20   85 1    
    44   22   23 am   BACKBONE|DICT|INTERRES
    45   22   86 1    
    46   23   24 2    
    47   23   25 1    
    48   25   26 1    
    49   25   27 1    
    50   25   87 1    
    51   26   88 1    
    52   26   89 1    
    53   26   90 1    
    54   27   28 am   BACKBONE|DICT|INTERRES
    55   27   91 1    
    56   28   29 2    
    57   28   30 1    
    58   30   31 1    
    59   30   32 1    
    60   30   92 1    
    61   31   93 1    
    62   31   94 1    
    63   31   95 1    
    64   32   33 am   BACKBONE|DICT|INTERRES
    65   32   96 1    
    66   33   34 2    
    67   33   35 1    
    68   35   36 1    
    69   35   37 1    
    70   35   97 1    
    71   36   98 1    
    72   36   99 1    
    73   36  100 1    
    74   37   38 am   BACKBONE|DICT|INTERRES
    75   37  101 1    
    76   38   39 2    
    77   38   40 1    
    78   40   41 1    
    79   40   42 1    
    80   40  102 1    
    81   41  103 1    
    82   41  104 1    
    83   41  105 1    
    84   42   43 am   BACKBONE|DICT|INTERRES
    85   42  106 1    
    86   43   44 2    
    87   43   45 1    
    88   45   46 1    
    89   45   49 1    
    90   45  107 1    
    91   46   47 1    
    92   46  108 1    
    93   46  109 1    
    94   47   48 1    
    95   48  110 1    
    96   48  111 1    
    97   49   50 am   BACKBONE|DICT|INTERRES
    98   49  112 1    
    99   50   51 2    
   100   50   52 1    
   101   52   53 1    
   102   52   54 1    
   103   52  113 1    
   104   53  114 1    
   105   53  115 1    
   106   53  116 1    
   107   54   55 am   BACKBONE|DICT|INTERRES
   108   54  117 1    
   109   55   56 2    
   110   55   57 1    
   111   57   58 1    
   112   57   59 1    
   113   57  118 1    
   114   58  119 1    
   115   58  120 1    
   116   58  121 1    
   117   59   60 am   BACKBONE|DICT|INTERRES
   118   59  122 1    
   119   60   61 2    
   120   60   62 1    
   121   62   63 1    
   122   62   64 1    
   123   62  123 1    
   124   63  124 1    
   125   63  125 1    
   126   63  126 1    
   127   64   65 am   BACKBONE|DICT|INTERRES
   128   64  127 1    
   129   65   66 2    
@<TRIPOS>SUBSTRUCTURE
     1 UNK         1 GROUP             0       ****    0 ROOT    
