@<TRIPOS>MOLECULE
3R135
127   129    1
SMALL
USER_CHARGES


@<TRIPOS>ATOM
      1 CA        -80.2639   20.9675  -70.9792 C.3       0 UNK        -0.1998 
      2 C         -81.2654   22.0654  -71.3055 C.2       0 UNK         0.4909 
      3 O         -82.4590   21.7885  -71.4330 O.2       0 UNK        -0.5240 
      4 N         -80.7879   23.3093  -71.4313 N.am      1 UNK        -0.4739 
      5 CA        -81.5738   24.4780  -71.8399 C.3       1 UNK         0.0864 
      6 C6        -80.9545   25.7901  -71.2888 C.3       11 UNK        -0.0881 
      7 S7        -79.2580   26.1361  -71.8660 S.3       11 UNK        -0.2682 
      8 C8        -78.8406   27.5632  -70.8157 C.3       11 UNK         0.0289 
      9 C9        -77.9540   28.5430  -71.5653 C.ar      11 UNK        -0.0687 
     10 C10       -78.5069   29.3304  -72.5774 C.ar      11 UNK        -0.0823 
     11 C11       -77.7068   30.2097  -73.3092 C.ar      11 UNK        -0.0830 
     12 C12       -76.3473   30.3172  -73.0059 C.ar      11 UNK        -0.1021 
     13 C13       -75.7849   29.5522  -71.9787 C.ar      11 UNK        -0.0753 
     14 C14       -76.5931   28.6605  -71.2644 C.ar      11 UNK        -0.0933 
     15 C15       -74.2957   29.6506  -71.6795 C.3       11 UNK         0.0166 
     16 S16       -73.7665   31.3548  -71.3233 S.3       11 UNK        -0.2615 
     17 C17       -71.9581   31.1429  -71.1966 C.3       11 UNK        -0.0865 
     18 CA        -71.2288   31.4289  -72.5375 C.3       10 UNK         0.0862 
     19 C         -69.7014   31.6332  -72.3168 C.2       10 UNK         0.5551 
     20 N         -68.8263   30.8274  -72.9076 N.am      10 UNK        -0.7319 
     21 O         -69.3023   32.5511  -71.6044 O.2       10 UNK        -0.5018 
     22 N         -71.5342   30.3999  -73.5446 N.am      10 UNK        -0.4509 
     23 C         -71.6950   30.6103  -74.8540 C.2       10 UNK         0.4899 
     24 O         -71.6874   31.7297  -75.3673 O.2       10 UNK        -0.4839 
     25 CA        -71.8938   29.3818  -75.7678 C.3       9 UNK         0.0222 
     26 CB        -70.5906   29.0470  -76.5187 C.3       9 UNK        -0.1966 
     27 N         -72.4559   28.1701  -75.1468 N.am      9 UNK        -0.4218 
     28 C         -71.9388   27.3918  -74.1829 C.2       9 UNK         0.5020 
     29 O         -70.9097   27.6611  -73.5622 O.2       9 UNK        -0.5274 
     30 CA        -72.6968   26.0988  -73.8395 C.3       8 UNK         0.0270 
     31 CB        -73.8314   26.3679  -72.8393 C.3       8 UNK        -0.1976 
     32 N         -73.2407   25.4212  -75.0160 N.am      8 UNK        -0.4313 
     33 C         -72.5084   24.7858  -75.9413 C.2       8 UNK         0.5041 
     34 O         -71.2799   24.7032  -75.9103 O.2       8 UNK        -0.5577 
     35 CA        -73.2791   24.1233  -77.0936 C.3       7 UNK         0.0284 
     36 CB        -73.9108   22.7954  -76.6423 C.3       7 UNK        -0.1958 
     37 N         -74.3148   25.0069  -77.6282 N.am      7 UNK        -0.4454 
     38 C         -74.0798   26.0216  -78.4707 C.2       7 UNK         0.5089 
     39 O         -72.9722   26.2823  -78.9408 O.2       7 UNK        -0.5125 
     40 CA        -75.2842   26.8983  -78.8568 C.3       6 UNK         0.0408 
     41 CB        -75.9391   26.3750  -80.1445 C.3       6 UNK        -0.1791 
     42 N         -76.2980   26.9934  -77.8035 N.am      6 UNK        -0.4762 
     43 C         -76.1166   27.6199  -76.6303 C.2       6 UNK         0.5007 
     44 O         -75.0580   28.1534  -76.2977 O.2       6 UNK        -0.5032 
     45 CA        -77.3004   27.5884  -75.6378 C.3       5 UNK         0.0783 
     46 C46       -78.3877   28.6348  -76.0057 C.3       11 UNK        -0.0857 
     47 S47       -77.7914   30.3637  -76.0700 S.3       11 UNK        -0.2512 
     48 C48       -78.3065   31.0149  -74.4504 C.3       11 UNK         0.0225 
     49 N         -77.8843   26.2453  -75.5271 N.am      5 UNK        -0.4615 
     50 C         -77.2053   25.1175  -75.2580 C.2       4 UNK         0.5053 
     51 O         -76.0149   25.1015  -74.9502 O.2       4 UNK        -0.5105 
     52 CA        -77.9290   23.7682  -75.4280 C.3       4 UNK         0.0263 
     53 CB        -78.1537   23.0919  -74.0682 C.3       4 UNK        -0.1981 
     54 N         -79.1942   23.8615  -76.1629 N.am      4 UNK        -0.4224 
     55 C         -79.2899   24.2051  -77.4584 C.2       3 UNK         0.4895 
     56 O         -78.3111   24.4153  -78.1767 O.2       3 UNK        -0.5091 
     57 CA        -80.6972   24.3991  -78.0535 C.3       3 UNK         0.0250 
     58 CB        -81.0944   23.1761  -78.8955 C.3       3 UNK        -0.1996 
     59 N         -81.7496   24.6651  -77.0679 N.am      3 UNK        -0.4254 
     60 C         -81.7892   25.7000  -76.2157 C.2       2 UNK         0.5004 
     61 O         -80.9190   26.5700  -76.1569 O.2       2 UNK        -0.5226 
     62 CA        -82.9743   25.7522  -75.2291 C.3       2 UNK         0.0269 
     63 CB        -84.1366   24.7989  -75.5912 C.3       2 UNK        -0.1926 
     64 N         -82.5584   25.5234  -73.8376 N.am      2 UNK        -0.4687 
     65 C         -81.8213   24.5027  -73.3693 C.2       1 UNK         0.5165 
     66 O         -81.3590   23.6132  -74.0914 O.2       1 UNK        -0.5079 
     67 H67       -80.5261   20.4871  -70.0370 H         1 UNK         0.0900 
     68 H68       -79.2487   21.3547  -70.8924 H         1 UNK         0.0900 
     69 H69       -80.2710   20.2103  -71.7628 H         1 UNK         0.0900 
     70 H70       -79.7970   23.4768  -71.3336 H         1 UNK         0.2959 
     71 H71       -82.5631   24.3808  -71.3866 H         1 UNK         0.1079 
     72 H72       -81.5848   26.6486  -71.5264 H         1 UNK         0.0837 
     73 H73       -80.9352   25.7411  -70.1986 H         1 UNK         0.0837 
     74 H74       -78.3550   27.2097  -69.9050 H         1 UNK         0.0685 
     75 H75       -79.7492   28.0794  -70.5019 H         1 UNK         0.0685 
     76 H76       -79.5579   29.2317  -72.8136 H         1 UNK         0.1434 
     77 H77       -75.7219   30.9875  -73.5802 H         1 UNK         0.1329 
     78 H78       -76.1623   28.0485  -70.4838 H         1 UNK         0.1335 
     79 H79       -73.7521   29.2790  -72.5461 H         1 UNK         0.0680 
     80 H80       -74.0244   29.0136  -70.8364 H         1 UNK         0.0680 
     81 H81       -71.6192   31.8331  -70.4213 H         1 UNK         0.1032 
     82 H82       -71.7199   30.1433  -70.8285 H         1 UNK         0.1032 
     83 H83       -71.5940   32.3903  -72.9038 H         1 UNK         0.0461 
     84 H84       -69.1443   30.0652  -73.4851 H         1 UNK         0.3453 
     85 H85       -67.8401   30.9745  -72.7606 H         1 UNK         0.3453 
     86 H86       -71.4463   29.4338  -73.2447 H         1 UNK         0.2984 
     87 H87       -72.6303   29.6824  -76.5146 H         1 UNK         0.0554 
     88 H88       -70.2177   29.9157  -77.0631 H         1 UNK         0.0847 
     89 H89       -70.7491   28.2520  -77.2479 H         1 UNK         0.0847 
     90 H90       -69.8001   28.7257  -75.8399 H         1 UNK         0.0847 
     91 H91       -73.3618   27.9044  -75.5295 H         1 UNK         0.3141 
     92 H92       -71.9857   25.4195  -73.3644 H         1 UNK         0.0743 
     93 H93       -73.4477   26.8278  -71.9284 H         1 UNK         0.0784 
     94 H94       -74.5908   27.0301  -73.2575 H         1 UNK         0.0784 
     95 H95       -74.3278   25.4423  -72.5468 H         1 UNK         0.0784 
     96 H96       -74.2576   25.3871  -75.0889 H         1 UNK         0.3213 
     97 H97       -72.5649   23.9008  -77.8899 H         1 UNK         0.0855 
     98 H98       -74.6293   22.9362  -75.8345 H         1 UNK         0.0814 
     99 H99       -73.1463   22.1074  -76.2789 H         1 UNK         0.0814 
    100 H100      -74.4252   22.3006  -77.4663 H         1 UNK         0.0814 
    101 H101      -75.2523   24.8906  -77.2710 H         1 UNK         0.3105 
    102 H102      -74.9087   27.9053  -79.0511 H         1 UNK         0.0547 
    103 H103      -76.3557   25.3760  -80.0089 H         1 UNK         0.0837 
    104 H104      -76.7432   27.0316  -80.4770 H         1 UNK         0.0837 
    105 H105      -75.2127   26.3178  -80.9564 H         1 UNK         0.0837 
    106 H106      -77.1769   26.5207  -77.9731 H         1 UNK         0.3020 
    107 H107      -76.8975   27.8356  -74.6536 H         1 UNK         0.1245 
    108 H108      -79.2150   28.5749  -75.2972 H         1 UNK         0.0781 
    109 H109      -78.8238   28.3977  -76.9779 H         1 UNK         0.0781 
    110 H110      -77.9893   32.0554  -74.3673 H         1 UNK         0.0836 
    111 H111      -79.3963   31.0217  -74.3946 H         1 UNK         0.0836 
    112 H112      -78.8717   26.1746  -75.7480 H         1 UNK         0.3022 
    113 H113      -77.2646   23.1259  -76.0096 H         1 UNK         0.0747 
    114 H114      -77.2061   22.9250  -73.5542 H         1 UNK         0.0793 
    115 H115      -78.6413   22.1232  -74.1776 H         1 UNK         0.0793 
    116 H116      -78.7705   23.7068  -73.4164 H         1 UNK         0.0793 
    117 H117      -80.0440   23.7301  -75.6206 H         1 UNK         0.3047 
    118 H118      -80.6452   25.2673  -78.7137 H         1 UNK         0.0822 
    119 H119      -80.3448   22.9683  -79.6607 H         1 UNK         0.0807 
    120 H120      -82.0418   23.3375  -79.4101 H         1 UNK         0.0807 
    121 H121      -81.1916   22.2789  -78.2827 H         1 UNK         0.0807 
    122 H122      -82.4921   23.9833  -77.0105 H         1 UNK         0.2946 
    123 H123      -83.3565   26.7732  -75.2810 H         1 UNK         0.1144 
    124 H124      -84.4877   24.9690  -76.6101 H         1 UNK         0.0793 
    125 H125      -84.9903   24.9616  -74.9332 H         1 UNK         0.0793 
    126 H126      -83.8547   23.7488  -75.5030 H         1 UNK         0.0793 
    127 H127      -82.8649   26.2269  -73.1805 H         1 UNK         0.2896 
@<TRIPOS>BOND
     1    1    2 1    
     2    1   67 1    
     3    1   68 1    
     4    1   69 1    
     5    2    3 2    
     6    2    4 am   BACKBONE|DICT|INTERRES
     7    4    5 1    
     8    4   70 1    
     9    5    6 1    
    10    5   65 1    
    11    5   71 1    
    12    6    7 1    
    13    6   72 1    
    14    6   73 1    
    15    7    8 1    
    16    8    9 1    
    17    8   74 1    
    18    8   75 1    
    19    9   10 ar   
    20    9   14 ar   
    21   10   11 ar   
    22   10   76 1    
    23   11   12 ar   
    24   11   48 1    
    25   12   13 ar   
    26   12   77 1    
    27   13   14 ar   
    28   13   15 1    
    29   14   78 1    
    30   15   16 1    
    31   15   79 1    
    32   15   80 1    
    33   16   17 1    
    34   17   18 1    
    35   17   81 1    
    36   17   82 1    
    37   18   19 1    
    38   18   22 1    
    39   18   83 1    
    40   19   20 am   BACKBONE|DICT|INTERRES
    41   19   21 2    
    42   20   84 1    
    43   20   85 1    
    44   22   23 am   BACKBONE|DICT|INTERRES
    45   22   86 1    
    46   23   24 2    
    47   23   25 1    
    48   25   26 1    
    49   25   27 1    
    50   25   87 1    
    51   26   88 1    
    52   26   89 1    
    53   26   90 1    
    54   27   28 am   BACKBONE|DICT|INTERRES
    55   27   91 1    
    56   28   29 2    
    57   28   30 1    
    58   30   31 1    
    59   30   32 1    
    60   30   92 1    
    61   31   93 1    
    62   31   94 1    
    63   31   95 1    
    64   32   33 am   BACKBONE|DICT|INTERRES
    65   32   96 1    
    66   33   34 2    
    67   33   35 1    
    68   35   36 1    
    69   35   37 1    
    70   35   97 1    
    71   36   98 1    
    72   36   99 1    
    73   36  100 1    
    74   37   38 am   BACKBONE|DICT|INTERRES
    75   37  101 1    
    76   38   39 2    
    77   38   40 1    
    78   40   41 1    
    79   40   42 1    
    80   40  102 1    
    81   41  103 1    
    82   41  104 1    
    83   41  105 1    
    84   42   43 am   BACKBONE|DICT|INTERRES
    85   42  106 1    
    86   43   44 2    
    87   43   45 1    
    88   45   46 1    
    89   45   49 1    
    90   45  107 1    
    91   46   47 1    
    92   46  108 1    
    93   46  109 1    
    94   47   48 1    
    95   48  110 1    
    96   48  111 1    
    97   49   50 am   BACKBONE|DICT|INTERRES
    98   49  112 1    
    99   50   51 2    
   100   50   52 1    
   101   52   53 1    
   102   52   54 1    
   103   52  113 1    
   104   53  114 1    
   105   53  115 1    
   106   53  116 1    
   107   54   55 am   BACKBONE|DICT|INTERRES
   108   54  117 1    
   109   55   56 2    
   110   55   57 1    
   111   57   58 1    
   112   57   59 1    
   113   57  118 1    
   114   58  119 1    
   115   58  120 1    
   116   58  121 1    
   117   59   60 am   BACKBONE|DICT|INTERRES
   118   59  122 1    
   119   60   61 2    
   120   60   62 1    
   121   62   63 1    
   122   62   64 1    
   123   62  123 1    
   124   63  124 1    
   125   63  125 1    
   126   63  126 1    
   127   64   65 am   BACKBONE|DICT|INTERRES
   128   64  127 1    
   129   65   66 2    
@<TRIPOS>SUBSTRUCTURE
     1 UNK         1 GROUP             0       ****    0 ROOT    
