@<TRIPOS>MOLECULE
3R135
127   129    1
SMALL
USER_CHARGES


@<TRIPOS>ATOM
      1 CA        -84.9753   24.7274  -74.3843 C.3       0 UNK        -0.1998 
      2 C         -84.3794   26.1268  -74.4220 C.2       0 UNK         0.4909 
      3 O         -85.0587   27.0733  -74.8207 O.2       0 UNK        -0.5240 
      4 N         -83.1154   26.2639  -74.0127 N.am      1 UNK        -0.4739 
      5 CA        -82.3520   27.5088  -74.0082 C.3       1 UNK         0.0864 
      6 C6        -82.6370   28.3469  -72.7354 C.3       11 UNK        -0.0881 
      7 S7        -81.9041   30.0214  -72.7721 S.3       11 UNK        -0.2682 
      8 C8        -80.9850   30.0735  -71.1990 C.3       11 UNK         0.0289 
      9 C9        -79.5990   29.4459  -71.2951 C.ar      11 UNK        -0.0687 
     10 C10       -79.4238   28.0737  -71.0920 C.ar      11 UNK        -0.0823 
     11 C11       -78.1502   27.4959  -71.1177 C.ar      11 UNK        -0.0830 
     12 C12       -77.0383   28.3251  -71.3129 C.ar      11 UNK        -0.1021 
     13 C13       -77.1967   29.6940  -71.5485 C.ar      11 UNK        -0.0753 
     14 C14       -78.4804   30.2476  -71.5425 C.ar      11 UNK        -0.0933 
     15 C15       -75.9792   30.5808  -71.7776 C.3       11 UNK         0.0166 
     16 S16       -75.5663   30.7639  -73.5446 S.3       11 UNK        -0.2615 
     17 C17       -74.7818   29.1592  -73.9132 C.3       11 UNK        -0.0865 
     18 CA        -73.2574   29.1667  -73.6399 C.3       10 UNK         0.0862 
     19 C         -72.7089   27.7190  -73.5698 C.2       10 UNK         0.5551 
     20 N         -72.3090   27.2548  -72.3944 N.am      10 UNK        -0.7319 
     21 O         -72.6870   27.0071  -74.5683 O.2       10 UNK        -0.5018 
     22 N         -72.5355   29.9243  -74.6674 N.am      10 UNK        -0.4509 
     23 C         -71.2893   30.3925  -74.5233 C.2       10 UNK         0.4899 
     24 O         -70.6868   30.4192  -73.4485 O.2       10 UNK        -0.4839 
     25 CA        -70.6030   30.8955  -75.8097 C.3       9 UNK         0.0222 
     26 CB        -69.0881   31.1389  -75.6374 C.3       9 UNK        -0.1966 
     27 N         -70.8731   30.0159  -76.9549 N.am      9 UNK        -0.4218 
     28 C         -70.5640   28.7151  -77.0761 C.2       9 UNK         0.5020 
     29 O         -69.8774   28.0821  -76.2715 O.2       9 UNK        -0.5274 
     30 CA        -71.1479   28.0012  -78.3095 C.3       8 UNK         0.0270 
     31 CB        -70.1863   26.9327  -78.8601 C.3       8 UNK        -0.1976 
     32 N         -72.4456   27.3736  -78.0420 N.am      8 UNK        -0.4313 
     33 C         -73.5706   27.9795  -77.6456 C.2       8 UNK         0.5041 
     34 O         -73.6462   29.1830  -77.3893 O.2       8 UNK        -0.5577 
     35 CA        -74.8548   27.1318  -77.5633 C.3       7 UNK         0.0284 
     36 CB        -75.5211   27.0304  -78.9486 C.3       7 UNK        -0.1958 
     37 N         -74.7577   25.8065  -76.9306 N.am      7 UNK        -0.4454 
     38 C         -74.0481   24.7319  -77.3041 C.2       7 UNK         0.5089 
     39 O         -73.2328   24.7411  -78.2282 O.2       7 UNK        -0.5125 
     40 CA        -74.3424   23.4006  -76.5835 C.3       6 UNK         0.0408 
     41 CB        -73.0953   22.5003  -76.4484 C.3       6 UNK        -0.1791 
     42 N         -75.0868   23.5368  -75.3227 N.am      6 UNK        -0.4762 
     43 C         -74.6272   23.8682  -74.1028 C.2       6 UNK         0.5007 
     44 O         -73.4389   24.0617  -73.8512 O.2       6 UNK        -0.5032 
     45 CA        -75.6563   23.9712  -72.9508 C.3       5 UNK         0.0783 
     46 C46       -75.5495   25.3254  -72.2053 C.3       11 UNK        -0.0857 
     47 S47       -76.3908   25.2982  -70.5839 S.3       11 UNK        -0.2512 
     48 C48       -78.0471   25.9764  -70.9601 C.3       11 UNK         0.0225 
     49 N         -77.0182   23.7652  -73.4458 N.am      5 UNK        -0.4615 
     50 C         -77.7270   22.6344  -73.3516 C.2       4 UNK         0.5053 
     51 O         -77.3309   21.6221  -72.7746 O.2       4 UNK        -0.5105 
     52 CA        -79.1071   22.6225  -74.0372 C.3       4 UNK         0.0263 
     53 CB        -80.2270   22.8011  -72.9993 C.3       4 UNK        -0.1981 
     54 N         -79.2378   23.6459  -75.0823 N.am      4 UNK        -0.4224 
     55 C         -78.5901   23.6024  -76.2581 C.2       3 UNK         0.4895 
     56 O         -77.8602   22.6704  -76.5946 O.2       3 UNK        -0.5091 
     57 CA        -78.7157   24.8159  -77.1971 C.3       3 UNK         0.0250 
     58 CB        -79.8329   24.5846  -78.2261 C.3       3 UNK        -0.1996 
     59 N         -78.9470   26.0895  -76.5110 N.am      3 UNK        -0.4254 
     60 C         -78.1372   26.6425  -75.5970 C.2       2 UNK         0.5004 
     61 O         -77.0696   26.1454  -75.2374 O.2       2 UNK        -0.5226 
     62 CA        -78.6277   27.9392  -74.9336 C.3       2 UNK         0.0269 
     63 CB        -78.1521   29.1643  -75.7287 C.3       2 UNK        -0.1926 
     64 N         -80.0821   28.0303  -74.7591 N.am      2 UNK        -0.4687 
     65 C         -80.8705   27.1281  -74.1587 C.2       1 UNK         0.5165 
     66 O         -80.4774   26.0331  -73.7443 O.2       1 UNK        -0.5079 
     67 H67       -84.2634   23.9912  -74.0112 H         1 UNK         0.0900 
     68 H68       -85.8514   24.7102  -73.7367 H         1 UNK         0.0900 
     69 H69       -85.2841   24.4239  -75.3843 H         1 UNK         0.0900 
     70 H70       -82.5712   25.4586  -73.7269 H         1 UNK         0.2959 
     71 H71       -82.6375   28.0893  -74.8888 H         1 UNK         0.1079 
     72 H72       -82.3230   27.8063  -71.8424 H         1 UNK         0.0837 
     73 H73       -83.7141   28.4817  -72.6252 H         1 UNK         0.0837 
     74 H74       -81.5660   29.5894  -70.4126 H         1 UNK         0.0685 
     75 H75       -80.8911   31.1171  -70.8947 H         1 UNK         0.0685 
     76 H76       -80.2846   27.4454  -70.9138 H         1 UNK         0.1434 
     77 H77       -76.0409   27.9138  -71.2944 H         1 UNK         0.1329 
     78 H78       -78.6061   31.3089  -71.7087 H         1 UNK         0.1335 
     79 H79       -76.1679   31.5719  -71.3623 H         1 UNK         0.0680 
     80 H80       -75.1155   30.1898  -71.2377 H         1 UNK         0.0680 
     81 H81       -74.9701   28.9137  -74.9575 H         1 UNK         0.1032 
     82 H82       -75.2835   28.3782  -73.3470 H         1 UNK         0.1032 
     83 H83       -73.0869   29.6457  -72.6734 H         1 UNK         0.0461 
     84 H84       -71.9689   26.3073  -72.3442 H         1 UNK         0.3453 
     85 H85       -72.3113   27.8349  -71.5704 H         1 UNK         0.3453 
     86 H86       -72.9276   29.8762  -75.6026 H         1 UNK         0.2984 
     87 H87       -71.0653   31.8550  -76.0454 H         1 UNK         0.0554 
     88 H88       -68.8990   31.8890  -74.8686 H         1 UNK         0.0847 
     89 H89       -68.6363   31.5015  -76.5605 H         1 UNK         0.0847 
     90 H90       -68.5616   30.2316  -75.3397 H         1 UNK         0.0847 
     91 H91       -71.4970   30.4008  -77.6526 H         1 UNK         0.3141 
     92 H92       -71.2976   28.7456  -79.0942 H         1 UNK         0.0743 
     93 H93       -69.2030   27.3589  -79.0637 H         1 UNK         0.0784 
     94 H94       -70.5563   26.5095  -79.7942 H         1 UNK         0.0784 
     95 H95       -70.0479   26.1126  -78.1540 H         1 UNK         0.0784 
     96 H96       -72.5117   26.3681  -78.1950 H         1 UNK         0.3213 
     97 H97       -75.5369   27.6942  -76.9278 H         1 UNK         0.0855 
     98 H98       -74.9307   26.4307  -79.6419 H         1 UNK         0.0814 
     99 H99       -75.6420   28.0179  -79.3964 H         1 UNK         0.0814 
    100 H100      -76.5137   26.5869  -78.8808 H         1 UNK         0.0814 
    101 H101      -75.3838   25.6888  -76.1387 H         1 UNK         0.3105 
    102 H102      -75.0299   22.8739  -77.2467 H         1 UNK         0.0547 
    103 H103      -73.3267   21.5715  -75.9274 H         1 UNK         0.0837 
    104 H104      -72.2892   22.9998  -75.9108 H         1 UNK         0.0837 
    105 H105      -72.7031   22.2304  -77.4296 H         1 UNK         0.0837 
    106 H106      -76.0807   23.3617  -75.4072 H         1 UNK         0.3020 
    107 H107      -75.3931   23.1758  -72.2497 H         1 UNK         0.1245 
    108 H108      -75.9398   26.1352  -72.8217 H         1 UNK         0.0781 
    109 H109      -74.5075   25.5746  -72.0016 H         1 UNK         0.0781 
    110 H110      -78.7128   25.6640  -70.1543 H         1 UNK         0.0836 
    111 H111      -78.4310   25.5083  -71.8662 H         1 UNK         0.0836 
    112 H112      -77.4044   24.5449  -73.9658 H         1 UNK         0.3022 
    113 H113      -79.2316   21.6435  -74.5051 H         1 UNK         0.0747 
    114 H114      -81.2113   22.7771  -73.4670 H         1 UNK         0.0793 
    115 H115      -80.2008   22.0006  -72.2587 H         1 UNK         0.0793 
    116 H116      -80.1336   23.7433  -72.4591 H         1 UNK         0.0793 
    117 H117      -79.7760   24.4725  -74.8409 H         1 UNK         0.3047 
    118 H118      -77.7686   24.9013  -77.7331 H         1 UNK         0.0822 
    119 H119      -79.8660   25.3866  -78.9638 H         1 UNK         0.0807 
    120 H120      -80.8130   24.5223  -77.7514 H         1 UNK         0.0807 
    121 H121      -79.6749   23.6529  -78.7715 H         1 UNK         0.0807 
    122 H122      -79.8060   26.5727  -76.7298 H         1 UNK         0.2946 
    123 H123      -78.1765   27.9778  -73.9412 H         1 UNK         0.1144 
    124 H124      -78.3679   30.0888  -75.1923 H         1 UNK         0.0793 
    125 H125      -78.6288   29.2226  -76.7079 H         1 UNK         0.0793 
    126 H126      -77.0765   29.1391  -75.8943 H         1 UNK         0.0793 
    127 H127      -80.5007   28.9067  -75.0372 H         1 UNK         0.2896 
@<TRIPOS>BOND
     1    1    2 1    
     2    1   67 1    
     3    1   68 1    
     4    1   69 1    
     5    2    3 2    
     6    2    4 am   BACKBONE|DICT|INTERRES
     7    4    5 1    
     8    4   70 1    
     9    5    6 1    
    10    5   65 1    
    11    5   71 1    
    12    6    7 1    
    13    6   72 1    
    14    6   73 1    
    15    7    8 1    
    16    8    9 1    
    17    8   74 1    
    18    8   75 1    
    19    9   10 ar   
    20    9   14 ar   
    21   10   11 ar   
    22   10   76 1    
    23   11   12 ar   
    24   11   48 1    
    25   12   13 ar   
    26   12   77 1    
    27   13   14 ar   
    28   13   15 1    
    29   14   78 1    
    30   15   16 1    
    31   15   79 1    
    32   15   80 1    
    33   16   17 1    
    34   17   18 1    
    35   17   81 1    
    36   17   82 1    
    37   18   19 1    
    38   18   22 1    
    39   18   83 1    
    40   19   20 am   BACKBONE|DICT|INTERRES
    41   19   21 2    
    42   20   84 1    
    43   20   85 1    
    44   22   23 am   BACKBONE|DICT|INTERRES
    45   22   86 1    
    46   23   24 2    
    47   23   25 1    
    48   25   26 1    
    49   25   27 1    
    50   25   87 1    
    51   26   88 1    
    52   26   89 1    
    53   26   90 1    
    54   27   28 am   BACKBONE|DICT|INTERRES
    55   27   91 1    
    56   28   29 2    
    57   28   30 1    
    58   30   31 1    
    59   30   32 1    
    60   30   92 1    
    61   31   93 1    
    62   31   94 1    
    63   31   95 1    
    64   32   33 am   BACKBONE|DICT|INTERRES
    65   32   96 1    
    66   33   34 2    
    67   33   35 1    
    68   35   36 1    
    69   35   37 1    
    70   35   97 1    
    71   36   98 1    
    72   36   99 1    
    73   36  100 1    
    74   37   38 am   BACKBONE|DICT|INTERRES
    75   37  101 1    
    76   38   39 2    
    77   38   40 1    
    78   40   41 1    
    79   40   42 1    
    80   40  102 1    
    81   41  103 1    
    82   41  104 1    
    83   41  105 1    
    84   42   43 am   BACKBONE|DICT|INTERRES
    85   42  106 1    
    86   43   44 2    
    87   43   45 1    
    88   45   46 1    
    89   45   49 1    
    90   45  107 1    
    91   46   47 1    
    92   46  108 1    
    93   46  109 1    
    94   47   48 1    
    95   48  110 1    
    96   48  111 1    
    97   49   50 am   BACKBONE|DICT|INTERRES
    98   49  112 1    
    99   50   51 2    
   100   50   52 1    
   101   52   53 1    
   102   52   54 1    
   103   52  113 1    
   104   53  114 1    
   105   53  115 1    
   106   53  116 1    
   107   54   55 am   BACKBONE|DICT|INTERRES
   108   54  117 1    
   109   55   56 2    
   110   55   57 1    
   111   57   58 1    
   112   57   59 1    
   113   57  118 1    
   114   58  119 1    
   115   58  120 1    
   116   58  121 1    
   117   59   60 am   BACKBONE|DICT|INTERRES
   118   59  122 1    
   119   60   61 2    
   120   60   62 1    
   121   62   63 1    
   122   62   64 1    
   123   62  123 1    
   124   63  124 1    
   125   63  125 1    
   126   63  126 1    
   127   64   65 am   BACKBONE|DICT|INTERRES
   128   64  127 1    
   129   65   66 2    
@<TRIPOS>SUBSTRUCTURE
     1 UNK         1 GROUP             0       ****    0 ROOT    
