@<TRIPOS>MOLECULE
3R135
127   129    1
SMALL
USER_CHARGES


@<TRIPOS>ATOM
      1 CA        -81.0417   22.9721  -71.5892 C.3       0 UNK        -0.1998 
      2 C         -81.1576   24.2746  -72.3639 C.2       0 UNK         0.4909 
      3 O         -80.2681   24.5850  -73.1580 O.2       0 UNK        -0.5240 
      4 N         -82.2518   25.0227  -72.1522 N.am      1 UNK        -0.4739 
      5 CA        -82.5994   26.3465  -72.7087 C.3       1 UNK         0.0864 
      6 C6        -81.5761   27.4564  -72.3617 C.3       11 UNK        -0.0881 
      7 S7        -81.3855   27.7597  -70.5725 S.3       11 UNK        -0.2682 
      8 C8        -79.6288   27.3268  -70.3002 C.3       11 UNK         0.0289 
      9 C9        -78.5817   28.1952  -71.0104 C.ar      11 UNK        -0.0687 
     10 C10       -78.9085   29.2574  -71.8660 C.ar      11 UNK        -0.0823 
     11 C11       -77.9159   29.9703  -72.5439 C.ar      11 UNK        -0.0830 
     12 C12       -76.5744   29.6477  -72.3279 C.ar      11 UNK        -0.1021 
     13 C13       -76.2264   28.6129  -71.4547 C.ar      11 UNK        -0.0753 
     14 C14       -77.2320   27.8922  -70.8050 C.ar      11 UNK        -0.0933 
     15 C15       -74.7638   28.2658  -71.2332 C.3       11 UNK         0.0166 
     16 S16       -73.8991   29.6151  -70.3679 S.3       11 UNK        -0.2615 
     17 C17       -72.1495   29.1547  -70.6057 C.3       11 UNK        -0.0865 
     18 CA        -71.5246   29.8483  -71.8464 C.3       10 UNK         0.0862 
     19 C         -69.9739   29.7000  -71.8579 C.2       10 UNK         0.5551 
     20 N         -69.3594   29.0874  -72.8637 N.am      10 UNK        -0.7319 
     21 O         -69.3113   30.1610  -70.9318 O.2       10 UNK        -0.5018 
     22 N         -72.1799   29.3978  -73.0813 N.am      10 UNK        -0.4509 
     23 C         -72.2411   30.0719  -74.2342 C.2       10 UNK         0.4899 
     24 O         -71.8228   31.2212  -74.3797 O.2       10 UNK        -0.4839 
     25 CA        -72.8774   29.3184  -75.4233 C.3       9 UNK         0.0222 
     26 CB        -72.3627   29.8282  -76.7856 C.3       9 UNK        -0.1966 
     27 N         -72.7445   27.8537  -75.3395 N.am      9 UNK        -0.4218 
     28 C         -71.6010   27.1551  -75.2475 C.2       9 UNK         0.5020 
     29 O         -70.4809   27.6653  -75.2027 O.2       9 UNK        -0.5274 
     30 CA        -71.7290   25.6318  -75.1493 C.3       8 UNK         0.0270 
     31 CB        -72.0611   25.2028  -73.7089 C.3       8 UNK        -0.1976 
     32 N         -72.7357   25.1116  -76.0774 N.am      8 UNK        -0.4313 
     33 C         -72.4551   24.7271  -77.3298 C.2       8 UNK         0.5041 
     34 O         -71.3373   24.8154  -77.8408 O.2       8 UNK        -0.5577 
     35 CA        -73.5943   24.0961  -78.1402 C.3       7 UNK         0.0284 
     36 CB        -73.9277   22.6935  -77.6035 C.3       7 UNK        -0.1958 
     37 N         -74.8050   24.9181  -78.1776 N.am      7 UNK        -0.4454 
     38 C         -74.9738   25.9593  -79.0051 C.2       7 UNK         0.5089 
     39 O         -74.0879   26.4061  -79.7346 O.2       7 UNK        -0.5125 
     40 CA        -76.3795   26.5824  -79.0664 C.3       6 UNK         0.0408 
     41 CB        -77.3678   25.6347  -79.7661 C.3       6 UNK        -0.1791 
     42 N         -76.8954   26.9442  -77.7478 N.am      6 UNK        -0.4762 
     43 C         -76.4543   27.9835  -77.0243 C.2       6 UNK         0.5007 
     44 O         -75.6100   28.7823  -77.4276 O.2       6 UNK        -0.5032 
     45 CA        -77.0258   28.1405  -75.5994 C.3       5 UNK         0.0783 
     46 C46       -78.2633   29.0759  -75.5540 C.3       11 UNK        -0.0857 
     47 S47       -77.7553   30.8001  -75.2258 S.3       11 UNK        -0.2512 
     48 C48       -78.3076   31.0866  -73.5073 C.3       11 UNK         0.0225 
     49 N         -77.2775   26.8450  -74.9668 N.am      5 UNK        -0.4615 
     50 C         -76.3030   26.0105  -74.5834 C.2       4 UNK         0.5053 
     51 O         -75.1023   26.2536  -74.7156 O.2       4 UNK        -0.5105 
     52 CA        -76.7411   24.6618  -73.9979 C.3       4 UNK         0.0263 
     53 CB        -77.0580   24.7978  -72.5019 C.3       4 UNK        -0.1981 
     54 N         -77.8919   24.0926  -74.7056 N.am      4 UNK        -0.4224 
     55 C         -77.8289   23.6315  -75.9635 C.2       3 UNK         0.4895 
     56 O         -76.8122   23.6749  -76.6538 O.2       3 UNK        -0.5091 
     57 CA        -79.1078   23.0400  -76.5721 C.3       3 UNK         0.0250 
     58 CB        -79.3451   21.6153  -76.0464 C.3       3 UNK        -0.1996 
     59 N         -80.3047   23.8493  -76.3478 N.am      3 UNK        -0.4254 
     60 C         -80.4840   25.1120  -76.7623 C.2       2 UNK         0.5004 
     61 O         -79.6236   25.7902  -77.3228 O.2       2 UNK        -0.5226 
     62 CA        -81.8445   25.7274  -76.4312 C.3       2 UNK         0.0269 
     63 CB        -82.9997   25.0029  -77.1503 C.3       2 UNK        -0.1926 
     64 N         -81.9955   25.6795  -74.9838 N.am      2 UNK        -0.4687 
     65 C         -82.8532   26.3679  -74.2324 C.2       1 UNK         0.5165 
     66 O         -83.7794   27.0394  -74.6888 O.2       1 UNK        -0.5079 
     67 H67       -80.9933   22.1298  -72.2787 H         1 UNK         0.0900 
     68 H68       -80.1310   22.9757  -70.9910 H         1 UNK         0.0900 
     69 H69       -81.8876   22.8174  -70.9199 H         1 UNK         0.0900 
     70 H70       -82.9416   24.6654  -71.5057 H         1 UNK         0.2959 
     71 H71       -83.5494   26.6183  -72.2452 H         1 UNK         0.1079 
     72 H72       -80.6055   27.2231  -72.8027 H         1 UNK         0.0837 
     73 H73       -81.8854   28.4050  -72.8061 H         1 UNK         0.0837 
     74 H74       -79.4396   27.3680  -69.2267 H         1 UNK         0.0685 
     75 H75       -79.4848   26.2870  -70.5967 H         1 UNK         0.0685 
     76 H76       -79.9381   29.5353  -72.0270 H         1 UNK         0.1434 
     77 H77       -75.7992   30.2011  -72.8405 H         1 UNK         0.1329 
     78 H78       -76.9638   27.0813  -70.1415 H         1 UNK         0.1335 
     79 H79       -74.6614   27.3468  -70.6538 H         1 UNK         0.0680 
     80 H80       -74.3067   28.0708  -72.2025 H         1 UNK         0.0680 
     81 H81       -71.6193   29.4480  -69.6974 H         1 UNK         0.1032 
     82 H82       -72.0521   28.0695  -70.6709 H         1 UNK         0.1032 
     83 H83       -71.7104   30.9198  -71.7495 H         1 UNK         0.0461 
     84 H84       -69.8776   28.7018  -73.6467 H         1 UNK         0.3453 
     85 H85       -68.3551   29.0102  -72.8477 H         1 UNK         0.3453 
     86 H86       -72.5287   28.4528  -73.0738 H         1 UNK         0.2984 
     87 H87       -73.9455   29.5307  -75.3720 H         1 UNK         0.0554 
     88 H88       -72.5887   30.8866  -76.9196 H         1 UNK         0.0847 
     89 H89       -72.8330   29.2927  -77.6106 H         1 UNK         0.0847 
     90 H90       -71.2829   29.7099  -76.8804 H         1 UNK         0.0847 
     91 H91       -73.6158   27.3296  -75.3014 H         1 UNK         0.3141 
     92 H92       -70.7547   25.2035  -75.3959 H         1 UNK         0.0743 
     93 H93       -73.0069   25.6148  -73.3582 H         1 UNK         0.0784 
     94 H94       -72.1189   24.1176  -73.6244 H         1 UNK         0.0784 
     95 H95       -71.2869   25.5387  -73.0175 H         1 UNK         0.0784 
     96 H96       -73.6931   25.0798  -75.7461 H         1 UNK         0.3213 
     97 H97       -73.2366   23.9720  -79.1652 H         1 UNK         0.0855 
     98 H98       -74.2870   22.7244  -76.5743 H         1 UNK         0.0814 
     99 H99       -73.0469   22.0502  -77.6209 H         1 UNK         0.0814 
    100 H100      -74.6944   22.2098  -78.2089 H         1 UNK         0.0814 
    101 H101      -75.5921   24.5940  -77.6163 H         1 UNK         0.3105 
    102 H102      -76.3144   27.4923  -79.6670 H         1 UNK         0.0547 
    103 H103      -77.0054   25.3520  -80.7552 H         1 UNK         0.0837 
    104 H104      -77.5222   24.7160  -79.1991 H         1 UNK         0.0837 
    105 H105      -78.3405   26.1080  -79.9002 H         1 UNK         0.0837 
    106 H106      -77.6401   26.3645  -77.3735 H         1 UNK         0.3020 
    107 H107      -76.2302   28.6000  -75.0085 H         1 UNK         0.1245 
    108 H108      -78.9622   28.7631  -74.7774 H         1 UNK         0.0781 
    109 H109      -78.8358   29.0396  -76.4832 H         1 UNK         0.0781 
    110 H110      -79.3893   31.2292  -73.5147 H         1 UNK         0.0836 
    111 H111      -77.8813   32.0261  -73.1531 H         1 UNK         0.0836 
    112 H112      -78.2386   26.5600  -74.8543 H         1 UNK         0.3022 
    113 H113      -75.9036   23.9687  -74.1034 H         1 UNK         0.0747 
    114 H114      -77.3277   23.8372  -72.0633 H         1 UNK         0.0793 
    115 H115      -76.1944   25.1766  -71.9537 H         1 UNK         0.0793 
    116 H116      -77.8837   25.4878  -72.3292 H         1 UNK         0.0793 
    117 H117      -78.7785   24.0814  -74.2060 H         1 UNK         0.3047 
    118 H118      -78.9552   22.9817  -77.6520 H         1 UNK         0.0822 
    119 H119      -80.1832   21.1387  -76.5552 H         1 UNK         0.0807 
    120 H120      -79.5535   21.6080  -74.9756 H         1 UNK         0.0807 
    121 H121      -78.4687   20.9870  -76.2125 H         1 UNK         0.0807 
    122 H122      -81.0707   23.3934  -75.8739 H         1 UNK         0.2946 
    123 H123      -81.8266   26.7723  -76.7494 H         1 UNK         0.1144 
    124 H124      -83.9482   25.5167  -76.9941 H         1 UNK         0.0793 
    125 H125      -83.1191   23.9760  -76.8040 H         1 UNK         0.0793 
    126 H126      -82.8274   24.9691  -78.2269 H         1 UNK         0.0793 
    127 H127      -81.2537   25.1981  -74.4750 H         1 UNK         0.2896 
@<TRIPOS>BOND
     1    1    2 1    
     2    1   67 1    
     3    1   68 1    
     4    1   69 1    
     5    2    3 2    
     6    2    4 am   BACKBONE|DICT|INTERRES
     7    4    5 1    
     8    4   70 1    
     9    5    6 1    
    10    5   65 1    
    11    5   71 1    
    12    6    7 1    
    13    6   72 1    
    14    6   73 1    
    15    7    8 1    
    16    8    9 1    
    17    8   74 1    
    18    8   75 1    
    19    9   10 ar   
    20    9   14 ar   
    21   10   11 ar   
    22   10   76 1    
    23   11   12 ar   
    24   11   48 1    
    25   12   13 ar   
    26   12   77 1    
    27   13   14 ar   
    28   13   15 1    
    29   14   78 1    
    30   15   16 1    
    31   15   79 1    
    32   15   80 1    
    33   16   17 1    
    34   17   18 1    
    35   17   81 1    
    36   17   82 1    
    37   18   19 1    
    38   18   22 1    
    39   18   83 1    
    40   19   20 am   BACKBONE|DICT|INTERRES
    41   19   21 2    
    42   20   84 1    
    43   20   85 1    
    44   22   23 am   BACKBONE|DICT|INTERRES
    45   22   86 1    
    46   23   24 2    
    47   23   25 1    
    48   25   26 1    
    49   25   27 1    
    50   25   87 1    
    51   26   88 1    
    52   26   89 1    
    53   26   90 1    
    54   27   28 am   BACKBONE|DICT|INTERRES
    55   27   91 1    
    56   28   29 2    
    57   28   30 1    
    58   30   31 1    
    59   30   32 1    
    60   30   92 1    
    61   31   93 1    
    62   31   94 1    
    63   31   95 1    
    64   32   33 am   BACKBONE|DICT|INTERRES
    65   32   96 1    
    66   33   34 2    
    67   33   35 1    
    68   35   36 1    
    69   35   37 1    
    70   35   97 1    
    71   36   98 1    
    72   36   99 1    
    73   36  100 1    
    74   37   38 am   BACKBONE|DICT|INTERRES
    75   37  101 1    
    76   38   39 2    
    77   38   40 1    
    78   40   41 1    
    79   40   42 1    
    80   40  102 1    
    81   41  103 1    
    82   41  104 1    
    83   41  105 1    
    84   42   43 am   BACKBONE|DICT|INTERRES
    85   42  106 1    
    86   43   44 2    
    87   43   45 1    
    88   45   46 1    
    89   45   49 1    
    90   45  107 1    
    91   46   47 1    
    92   46  108 1    
    93   46  109 1    
    94   47   48 1    
    95   48  110 1    
    96   48  111 1    
    97   49   50 am   BACKBONE|DICT|INTERRES
    98   49  112 1    
    99   50   51 2    
   100   50   52 1    
   101   52   53 1    
   102   52   54 1    
   103   52  113 1    
   104   53  114 1    
   105   53  115 1    
   106   53  116 1    
   107   54   55 am   BACKBONE|DICT|INTERRES
   108   54  117 1    
   109   55   56 2    
   110   55   57 1    
   111   57   58 1    
   112   57   59 1    
   113   57  118 1    
   114   58  119 1    
   115   58  120 1    
   116   58  121 1    
   117   59   60 am   BACKBONE|DICT|INTERRES
   118   59  122 1    
   119   60   61 2    
   120   60   62 1    
   121   62   63 1    
   122   62   64 1    
   123   62  123 1    
   124   63  124 1    
   125   63  125 1    
   126   63  126 1    
   127   64   65 am   BACKBONE|DICT|INTERRES
   128   64  127 1    
   129   65   66 2    
@<TRIPOS>SUBSTRUCTURE
     1 UNK         1 GROUP             0       ****    0 ROOT    
