@<TRIPOS>MOLECULE
3R135
127   129    1
SMALL
USER_CHARGES


@<TRIPOS>ATOM
      1 CA        -80.9396   23.7663  -68.8974 C.3       0 UNK        -0.1998 
      2 C         -80.4532   24.5216  -70.1259 C.2       0 UNK         0.4909 
      3 O         -79.2546   24.5095  -70.4010 O.2       0 UNK        -0.5240 
      4 N         -81.3826   25.1761  -70.8374 N.am      1 UNK        -0.4739 
      5 CA        -81.2201   25.9397  -72.0851 C.3       1 UNK         0.0864 
      6 C6        -80.1130   27.0245  -72.0572 C.3       11 UNK        -0.0881 
      7 S7        -80.4031   28.2913  -70.7801 S.3       11 UNK        -0.2682 
      8 C8        -78.7204   28.9822  -70.6019 C.3       11 UNK         0.0289 
      9 C9        -78.1415   29.6332  -71.8612 C.ar      11 UNK        -0.0687 
     10 C10       -78.9534   30.1526  -72.8769 C.ar      11 UNK        -0.0823 
     11 C11       -78.3917   30.7326  -74.0167 C.ar      11 UNK        -0.0830 
     12 C12       -77.0032   30.8556  -74.1145 C.ar      11 UNK        -0.1021 
     13 C13       -76.1759   30.3519  -73.1074 C.ar      11 UNK        -0.0753 
     14 C14       -76.7529   29.7291  -71.9940 C.ar      11 UNK        -0.0933 
     15 C15       -74.6621   30.4453  -73.2450 C.3       11 UNK         0.0166 
     16 S16       -73.8860   31.1833  -71.7694 S.3       11 UNK        -0.2615 
     17 C17       -72.1054   31.0827  -72.1731 C.3       11 UNK        -0.0865 
     18 CA        -71.4072   29.7880  -71.6747 C.3       10 UNK         0.0862 
     19 C         -71.3963   29.6626  -70.1214 C.2       10 UNK         0.5551 
     20 N         -71.9747   28.6225  -69.5332 N.am      10 UNK        -0.7319 
     21 O         -70.8390   30.5210  -69.4414 O.2       10 UNK        -0.5018 
     22 N         -71.8992   28.6159  -72.4122 N.am      10 UNK        -0.4509 
     23 C         -71.2655   27.4451  -72.5423 C.2       10 UNK         0.4899 
     24 O         -70.2019   27.1675  -71.9881 O.2       10 UNK        -0.4839 
     25 CA        -71.9246   26.4157  -73.4790 C.3       9 UNK         0.0222 
     26 CB        -72.9137   25.5366  -72.6976 C.3       9 UNK        -0.1966 
     27 N         -72.6129   27.0091  -74.6333 N.am      9 UNK        -0.4218 
     28 C         -72.0362   27.7633  -75.5817 C.2       9 UNK         0.5020 
     29 O         -70.8480   28.0921  -75.5757 O.2       9 UNK        -0.5274 
     30 CA        -72.9533   28.1890  -76.7434 C.3       8 UNK         0.0270 
     31 CB        -72.2740   29.1562  -77.7354 C.3       8 UNK        -0.1976 
     32 N         -73.5112   27.0278  -77.4456 N.am      8 UNK        -0.4313 
     33 C         -72.8461   26.0274  -78.0457 C.2       8 UNK         0.5041 
     34 O         -71.6206   25.9805  -78.1598 O.2       8 UNK        -0.5577 
     35 CA        -73.6792   24.8565  -78.5987 C.3       7 UNK         0.0284 
     36 CB        -73.5066   23.6196  -77.7010 C.3       7 UNK        -0.1958 
     37 N         -75.1072   25.1622  -78.7196 N.am      7 UNK        -0.4454 
     38 C         -75.6486   25.8955  -79.7013 C.2       7 UNK         0.5089 
     39 O         -75.0096   26.3485  -80.6513 O.2       7 UNK        -0.5125 
     40 CA        -77.1524   26.2054  -79.5842 C.3       6 UNK         0.0408 
     41 CB        -77.9928   25.0144  -80.0690 C.3       6 UNK        -0.1791 
     42 N         -77.5685   26.5852  -78.2292 N.am      6 UNK        -0.4762 
     43 C         -77.1038   27.6477  -77.5521 C.2       6 UNK         0.5007 
     44 O         -76.2379   28.4094  -77.9813 O.2       6 UNK        -0.5032 
     45 CA        -77.6635   27.8640  -76.1342 C.3       5 UNK         0.0783 
     46 C46       -79.0735   28.5121  -76.1576 C.3       11 UNK        -0.0857 
     47 S47       -79.0188   30.2616  -76.6944 S.3       11 UNK        -0.2512 
     48 C48       -79.2935   31.1978  -75.1515 C.3       11 UNK         0.0225 
     49 N         -77.6288   26.6009  -75.3929 N.am      5 UNK        -0.4615 
     50 C         -76.5060   26.0682  -74.8862 C.2       4 UNK         0.5053 
     51 O         -75.4193   26.6488  -74.8776 O.2       4 UNK        -0.5105 
     52 CA        -76.5797   24.6332  -74.3343 C.3       4 UNK         0.0263 
     53 CB        -76.7571   24.6358  -72.8115 C.3       4 UNK        -0.1981 
     54 N         -77.6346   23.8243  -74.9510 N.am      4 UNK        -0.4224 
     55 C         -77.5806   23.3756  -76.2136 C.2       3 UNK         0.4895 
     56 O         -76.6289   23.5753  -76.9654 O.2       3 UNK        -0.5091 
     57 CA        -78.8069   22.6231  -76.7558 C.3       3 UNK         0.0250 
     58 CB        -78.6846   21.1192  -76.4657 C.3       3 UNK        -0.1996 
     59 N         -80.0861   23.1172  -76.2423 N.am      3 UNK        -0.4254 
     60 C         -80.5270   24.3806  -76.3219 C.2       2 UNK         0.5004 
     61 O         -79.8883   25.2987  -76.8400 O.2       2 UNK        -0.5226 
     62 CA        -81.8928   24.6864  -75.6823 C.3       2 UNK         0.0269 
     63 CB        -82.7937   23.4420  -75.5083 C.3       2 UNK        -0.1926 
     64 N         -81.7650   25.4029  -74.4060 N.am      2 UNK        -0.4687 
     65 C         -81.0763   25.0213  -73.3174 C.2       1 UNK         0.5165 
     66 O         -80.3631   24.0158  -73.2748 O.2       1 UNK        -0.5079 
     67 H67       -80.4448   24.1465  -68.0041 H         1 UNK         0.0900 
     68 H68       -82.0158   23.8630  -68.7555 H         1 UNK         0.0900 
     69 H69       -80.7041   22.7065  -68.9924 H         1 UNK         0.0900 
     70 H70       -82.3405   25.1134  -70.5218 H         1 UNK         0.2959 
     71 H71       -82.1706   26.4636  -72.2017 H         1 UNK         0.1079 
     72 H72       -79.1302   26.5843  -71.8997 H         1 UNK         0.0837 
     73 H73       -80.0597   27.5330  -73.0204 H         1 UNK         0.0837 
     74 H74       -78.7378   29.7287  -69.8071 H         1 UNK         0.0685 
     75 H75       -78.0596   28.1834  -70.2607 H         1 UNK         0.0685 
     76 H76       -80.0291   30.0902  -72.7962 H         1 UNK         0.1434 
     77 H77       -76.5698   31.3135  -74.9935 H         1 UNK         0.1329 
     78 H78       -76.1136   29.3295  -71.2185 H         1 UNK         0.1335 
     79 H79       -74.3879   31.0372  -74.1198 H         1 UNK         0.0680 
     80 H80       -74.2775   29.4404  -73.4132 H         1 UNK         0.0680 
     81 H81       -71.9722   31.1884  -73.2510 H         1 UNK         0.1032 
     82 H82       -71.6150   31.9562  -71.7393 H         1 UNK         0.1032 
     83 H83       -70.3549   29.8882  -71.9485 H         1 UNK         0.0461 
     84 H84       -71.9571   28.5480  -68.5285 H         1 UNK         0.3453 
     85 H85       -72.4248   27.9127  -70.0871 H         1 UNK         0.3453 
     86 H86       -72.7818   28.7316  -72.8832 H         1 UNK         0.2984 
     87 H87       -71.1324   25.7741  -73.8698 H         1 UNK         0.0554 
     88 H88       -72.4237   25.0523  -71.8517 H         1 UNK         0.0847 
     89 H89       -73.3267   24.7474  -73.3261 H         1 UNK         0.0847 
     90 H90       -73.7454   26.1212  -72.3031 H         1 UNK         0.0847 
     91 H91       -73.6080   26.8060  -74.7276 H         1 UNK         0.3141 
     92 H92       -73.7988   28.7159  -76.2976 H         1 UNK         0.0743 
     93 H93       -71.9272   30.0560  -77.2259 H         1 UNK         0.0784 
     94 H94       -71.4087   28.7023  -78.2194 H         1 UNK         0.0784 
     95 H95       -72.9677   29.4710  -78.5152 H         1 UNK         0.0784 
     96 H96       -74.5210   26.9711  -77.4365 H         1 UNK         0.3213 
     97 H97       -73.2899   24.6159  -79.5904 H         1 UNK         0.0855 
     98 H98       -73.8589   23.8072  -76.6857 H         1 UNK         0.0814 
     99 H99       -72.4577   23.3278  -77.6333 H         1 UNK         0.0814 
    100 H100      -74.0563   22.7638  -78.0932 H         1 UNK         0.0814 
    101 H101      -75.7205   24.7534  -78.0151 H         1 UNK         0.3105 
    102 H102      -77.3661   27.0553  -80.2356 H         1 UNK         0.0547 
    103 H103      -79.0601   25.2297  -80.0150 H         1 UNK         0.0837 
    104 H104      -77.7621   24.7742  -81.1077 H         1 UNK         0.0837 
    105 H105      -77.7999   24.1184  -79.4799 H         1 UNK         0.0837 
    106 H106      -78.2946   26.0213  -77.7956 H         1 UNK         0.3020 
    107 H107      -76.9879   28.5550  -75.6262 H         1 UNK         0.1245 
    108 H108      -79.5299   28.4584  -75.1698 H         1 UNK         0.0781 
    109 H109      -79.7479   27.9670  -76.8201 H         1 UNK         0.0781 
    110 H110      -80.3454   31.1114  -74.8743 H         1 UNK         0.0836 
    111 H111      -79.1143   32.2568  -75.3419 H         1 UNK         0.0836 
    112 H112      -78.4640   26.0315  -75.4435 H         1 UNK         0.3022 
    113 H113      -75.6194   24.1618  -74.5547 H         1 UNK         0.0747 
    114 H114      -76.0438   25.3018  -72.3253 H         1 UNK         0.0793 
    115 H115      -77.7552   24.9632  -72.5307 H         1 UNK         0.0793 
    116 H116      -76.6085   23.6397  -72.3946 H         1 UNK         0.0793 
    117 H117      -78.4683   23.6487  -74.4005 H         1 UNK         0.3047 
    118 H118      -78.8216   22.7594  -77.8381 H         1 UNK         0.0822 
    119 H119      -77.7471   20.7215  -76.8575 H         1 UNK         0.0807 
    120 H120      -79.4928   20.5568  -76.9338 H         1 UNK         0.0807 
    121 H121      -78.7052   20.9110  -75.3951 H         1 UNK         0.0807 
    122 H122      -80.6670   22.4475  -75.7590 H         1 UNK         0.2946 
    123 H123      -82.3979   25.3621  -76.3750 H         1 UNK         0.1144 
    124 H124      -83.7950   23.7305  -75.1881 H         1 UNK         0.0793 
    125 H125      -82.4043   22.7445  -74.7659 H         1 UNK         0.0793 
    126 H126      -82.9064   22.9005  -76.4488 H         1 UNK         0.0793 
    127 H127      -82.2835   26.2694  -74.3573 H         1 UNK         0.2896 
@<TRIPOS>BOND
     1    1    2 1    
     2    1   67 1    
     3    1   68 1    
     4    1   69 1    
     5    2    3 2    
     6    2    4 am   BACKBONE|DICT|INTERRES
     7    4    5 1    
     8    4   70 1    
     9    5    6 1    
    10    5   65 1    
    11    5   71 1    
    12    6    7 1    
    13    6   72 1    
    14    6   73 1    
    15    7    8 1    
    16    8    9 1    
    17    8   74 1    
    18    8   75 1    
    19    9   10 ar   
    20    9   14 ar   
    21   10   11 ar   
    22   10   76 1    
    23   11   12 ar   
    24   11   48 1    
    25   12   13 ar   
    26   12   77 1    
    27   13   14 ar   
    28   13   15 1    
    29   14   78 1    
    30   15   16 1    
    31   15   79 1    
    32   15   80 1    
    33   16   17 1    
    34   17   18 1    
    35   17   81 1    
    36   17   82 1    
    37   18   19 1    
    38   18   22 1    
    39   18   83 1    
    40   19   20 am   BACKBONE|DICT|INTERRES
    41   19   21 2    
    42   20   84 1    
    43   20   85 1    
    44   22   23 am   BACKBONE|DICT|INTERRES
    45   22   86 1    
    46   23   24 2    
    47   23   25 1    
    48   25   26 1    
    49   25   27 1    
    50   25   87 1    
    51   26   88 1    
    52   26   89 1    
    53   26   90 1    
    54   27   28 am   BACKBONE|DICT|INTERRES
    55   27   91 1    
    56   28   29 2    
    57   28   30 1    
    58   30   31 1    
    59   30   32 1    
    60   30   92 1    
    61   31   93 1    
    62   31   94 1    
    63   31   95 1    
    64   32   33 am   BACKBONE|DICT|INTERRES
    65   32   96 1    
    66   33   34 2    
    67   33   35 1    
    68   35   36 1    
    69   35   37 1    
    70   35   97 1    
    71   36   98 1    
    72   36   99 1    
    73   36  100 1    
    74   37   38 am   BACKBONE|DICT|INTERRES
    75   37  101 1    
    76   38   39 2    
    77   38   40 1    
    78   40   41 1    
    79   40   42 1    
    80   40  102 1    
    81   41  103 1    
    82   41  104 1    
    83   41  105 1    
    84   42   43 am   BACKBONE|DICT|INTERRES
    85   42  106 1    
    86   43   44 2    
    87   43   45 1    
    88   45   46 1    
    89   45   49 1    
    90   45  107 1    
    91   46   47 1    
    92   46  108 1    
    93   46  109 1    
    94   47   48 1    
    95   48  110 1    
    96   48  111 1    
    97   49   50 am   BACKBONE|DICT|INTERRES
    98   49  112 1    
    99   50   51 2    
   100   50   52 1    
   101   52   53 1    
   102   52   54 1    
   103   52  113 1    
   104   53  114 1    
   105   53  115 1    
   106   53  116 1    
   107   54   55 am   BACKBONE|DICT|INTERRES
   108   54  117 1    
   109   55   56 2    
   110   55   57 1    
   111   57   58 1    
   112   57   59 1    
   113   57  118 1    
   114   58  119 1    
   115   58  120 1    
   116   58  121 1    
   117   59   60 am   BACKBONE|DICT|INTERRES
   118   59  122 1    
   119   60   61 2    
   120   60   62 1    
   121   62   63 1    
   122   62   64 1    
   123   62  123 1    
   124   63  124 1    
   125   63  125 1    
   126   63  126 1    
   127   64   65 am   BACKBONE|DICT|INTERRES
   128   64  127 1    
   129   65   66 2    
@<TRIPOS>SUBSTRUCTURE
     1 UNK         1 GROUP             0       ****    0 ROOT    
