@<TRIPOS>MOLECULE
3R135
127   129    1
SMALL
USER_CHARGES


@<TRIPOS>ATOM
      1 CA        -82.4599   30.0929  -76.0304 C.3       0 UNK        -0.1998 
      2 C         -81.1749   30.4215  -75.2849 C.2       0 UNK         0.4909 
      3 O         -80.7700   31.5837  -75.2416 O.2       0 UNK        -0.5240 
      4 N         -80.5313   29.4068  -74.7026 N.am      1 UNK        -0.4739 
      5 CA        -79.2777   29.5075  -73.9581 C.3       1 UNK         0.0864 
      6 C6        -79.4893   29.9772  -72.4941 C.3       11 UNK        -0.0881 
      7 S7        -80.5886   28.8933  -71.5090 S.3       11 UNK        -0.2682 
      8 C8        -79.6706   28.7184  -69.9461 C.3       11 UNK         0.0289 
      9 C9        -78.3340   28.0131  -70.1277 C.ar      11 UNK        -0.0687 
     10 C10       -78.2886   26.6415  -70.3882 C.ar      11 UNK        -0.0823 
     11 C11       -77.0629   25.9837  -70.5395 C.ar      11 UNK        -0.0830 
     12 C12       -75.8771   26.7177  -70.4130 C.ar      11 UNK        -0.1021 
     13 C13       -75.9033   28.0941  -70.1542 C.ar      11 UNK        -0.0753 
     14 C14       -77.1412   28.7298  -70.0054 C.ar      11 UNK        -0.0933 
     15 C15       -74.5856   28.8522  -69.9707 C.3       11 UNK         0.0166 
     16 S16       -74.6403   30.6228  -70.4377 S.3       11 UNK        -0.2615 
     17 C17       -73.8899   30.6793  -72.1053 C.3       11 UNK        -0.0865 
     18 CA        -74.8909   30.9119  -73.2703 C.3       10 UNK         0.0862 
     19 C         -75.5886   32.3034  -73.2065 C.2       10 UNK         0.5551 
     20 N         -75.1455   33.2923  -73.9787 N.am      10 UNK        -0.7319 
     21 O         -76.5648   32.4751  -72.4777 O.2       10 UNK        -0.5018 
     22 N         -74.2414   30.6290  -74.5633 N.am      10 UNK        -0.4509 
     23 C         -74.8838   30.4135  -75.7222 C.2       10 UNK         0.4899 
     24 O         -76.1089   30.3516  -75.8252 O.2       10 UNK        -0.4839 
     25 CA        -74.0041   30.1803  -76.9629 C.3       9 UNK         0.0222 
     26 CB        -73.4190   31.5080  -77.4721 C.3       9 UNK        -0.1966 
     27 N         -72.9196   29.2367  -76.6683 N.am      9 UNK        -0.4218 
     28 C         -72.9945   27.9124  -76.8624 C.2       9 UNK         0.5020 
     29 O         -73.9065   27.3631  -77.4811 O.2       9 UNK        -0.5274 
     30 CA        -71.8956   27.0387  -76.2349 C.3       8 UNK         0.0270 
     31 CB        -71.2658   27.6728  -74.9683 C.3       8 UNK        -0.1976 
     32 N         -72.4853   25.7310  -75.9336 N.am      8 UNK        -0.4313 
     33 C         -71.8224   24.6310  -75.5550 C.2       8 UNK         0.5041 
     34 O         -70.5958   24.5734  -75.4565 O.2       8 UNK        -0.5577 
     35 CA        -72.6468   23.3791  -75.2189 C.3       7 UNK         0.0284 
     36 CB        -73.0310   23.3725  -73.7292 C.3       7 UNK        -0.1958 
     37 N         -73.8667   23.2639  -76.0193 N.am      7 UNK        -0.4454 
     38 C         -74.0598   22.3626  -76.9916 C.2       7 UNK         0.5089 
     39 O         -73.1861   21.5946  -77.3993 O.2       7 UNK        -0.5125 
     40 CA        -75.4806   22.2978  -77.5889 C.3       6 UNK         0.0408 
     41 CB        -75.7672   20.9797  -78.3377 C.3       6 UNK        -0.1791 
     42 N         -76.5181   22.5752  -76.5890 N.am      6 UNK        -0.4762 
     43 C         -76.8115   21.8859  -75.4729 C.2       6 UNK         0.5007 
     44 O         -76.3048   20.8031  -75.1783 O.2       6 UNK        -0.5032 
     45 CA        -77.8197   22.5370  -74.4977 C.3       5 UNK         0.0783 
     46 C46       -77.0727   23.0859  -73.2524 C.3       11 UNK        -0.0857 
     47 S47       -78.1835   23.9026  -72.0589 S.3       11 UNK        -0.2512 
     48 C48       -77.0087   24.4761  -70.7822 C.3       11 UNK         0.0225 
     49 N         -78.6266   23.5722  -75.1555 N.am      5 UNK        -0.4615 
     50 C         -79.6246   23.3426  -76.0195 C.2       4 UNK         0.5053 
     51 O         -80.0517   22.2210  -76.2921 O.2       4 UNK        -0.5105 
     52 CA        -80.2170   24.5738  -76.7262 C.3       4 UNK         0.0263 
     53 CB        -81.4045   25.1391  -75.9302 C.3       4 UNK        -0.1981 
     54 N         -79.2082   25.6198  -76.9262 N.am      4 UNK        -0.4224 
     55 C         -78.2468   25.5663  -77.8637 C.2       3 UNK         0.4895 
     56 O         -78.1729   24.6793  -78.7133 O.2       3 UNK        -0.5091 
     57 CA        -77.1562   26.6520  -77.8275 C.3       3 UNK         0.0250 
     58 CB        -77.5471   27.8454  -78.7126 C.3       3 UNK        -0.1996 
     59 N         -76.8799   27.1284  -76.4736 N.am      3 UNK        -0.4254 
     60 C         -76.3402   26.3934  -75.4916 C.2       2 UNK         0.5004 
     61 O         -75.8572   25.2743  -75.6601 O.2       2 UNK        -0.5226 
     62 CA        -76.3558   26.9854  -74.0727 C.3       2 UNK         0.0269 
     63 CB        -74.9240   27.3245  -73.6384 C.3       2 UNK        -0.1926 
     64 N         -77.2230   28.1618  -73.9224 N.am      2 UNK        -0.4687 
     65 C         -78.5541   28.1543  -74.0734 C.2       1 UNK         0.5165 
     66 O         -79.1933   27.1379  -74.3640 O.2       1 UNK        -0.5079 
     67 H67       -83.2961   30.6402  -75.5950 H         1 UNK         0.0900 
     68 H68       -82.3710   30.3814  -77.0778 H         1 UNK         0.0900 
     69 H69       -82.6935   29.0285  -75.9902 H         1 UNK         0.0900 
     70 H70       -80.8771   28.4578  -74.7760 H         1 UNK         0.2959 
     71 H71       -78.6459   30.2424  -74.4638 H         1 UNK         0.1079 
     72 H72       -79.9256   30.9771  -72.4949 H         1 UNK         0.0837 
     73 H73       -78.5247   30.0913  -71.9991 H         1 UNK         0.0837 
     74 H74       -79.5335   29.7056  -69.5022 H         1 UNK         0.0685 
     75 H75       -80.2813   28.1510  -69.2426 H         1 UNK         0.0685 
     76 H76       -79.2131   26.0866  -70.4706 H         1 UNK         0.1434 
     77 H77       -74.9250   26.2134  -70.5065 H         1 UNK         0.1329 
     78 H78       -77.1829   29.7860  -69.7806 H         1 UNK         0.1335 
     79 H79       -74.3212   28.7969  -68.9140 H         1 UNK         0.0680 
     80 H80       -73.7773   28.3530  -70.5064 H         1 UNK         0.0680 
     81 H81       -73.1326   31.4653  -72.1039 H         1 UNK         0.1032 
     82 H82       -73.3397   29.7523  -72.2685 H         1 UNK         0.1032 
     83 H83       -75.6861   30.1792  -73.1476 H         1 UNK         0.0461 
     84 H84       -74.3568   33.1559  -74.5936 H         1 UNK         0.3453 
     85 H85       -75.6091   34.1862  -73.9460 H         1 UNK         0.3453 
     86 H86       -73.2351   30.6858  -74.5694 H         1 UNK         0.2984 
     87 H87       -74.6424   29.7763  -77.7516 H         1 UNK         0.0554 
     88 H88       -74.2119   32.2251  -77.6899 H         1 UNK         0.0847 
     89 H89       -72.8568   31.3613  -78.3945 H         1 UNK         0.0847 
     90 H90       -72.7508   31.9709  -76.7453 H         1 UNK         0.0847 
     91 H91       -72.1098   29.5999  -76.1869 H         1 UNK         0.3141 
     92 H92       -71.1199   26.8995  -76.9900 H         1 UNK         0.0743 
     93 H93       -72.0114   27.8763  -74.1996 H         1 UNK         0.0784 
     94 H94       -70.5119   27.0239  -74.5236 H         1 UNK         0.0784 
     95 H95       -70.7565   28.6091  -75.1975 H         1 UNK         0.0784 
     96 H96       -73.4859   25.6847  -76.0920 H         1 UNK         0.3213 
     97 H97       -72.0008   22.5159  -75.3940 H         1 UNK         0.0855 
     98 H98       -73.7090   24.1878  -73.4798 H         1 UNK         0.0814 
     99 H99       -72.1484   23.4740  -73.0960 H         1 UNK         0.0814 
    100 H100      -73.5207   22.4380  -73.4543 H         1 UNK         0.0814 
    101 H101      -74.6386   23.8882  -75.7907 H         1 UNK         0.3105 
    102 H102      -75.5403   23.1093  -78.3156 H         1 UNK         0.0547 
    103 H103      -75.0799   20.8492  -79.1744 H         1 UNK         0.0837 
    104 H104      -75.6553   20.1107  -77.6889 H         1 UNK         0.0837 
    105 H105      -76.7780   20.9673  -78.7453 H         1 UNK         0.0837 
    106 H106      -76.9717   23.4732  -76.6920 H         1 UNK         0.3020 
    107 H107      -78.4954   21.7449  -74.1666 H         1 UNK         0.1245 
    108 H108      -76.2974   23.7951  -73.5439 H         1 UNK         0.0781 
    109 H109      -76.5601   22.2733  -72.7335 H         1 UNK         0.0781 
    110 H110      -75.9969   24.1712  -71.0522 H         1 UNK         0.0836 
    111 H111      -77.2384   23.9665  -69.8461 H         1 UNK         0.0836 
    112 H112      -78.3755   24.5278  -74.9503 H         1 UNK         0.3022 
    113 H113      -80.5852   24.2549  -77.7039 H         1 UNK         0.0747 
    114 H114      -81.8291   26.0169  -76.4174 H         1 UNK         0.0793 
    115 H115      -82.2007   24.3983  -75.8459 H         1 UNK         0.0793 
    116 H116      -81.1185   25.4210  -74.9164 H         1 UNK         0.0793 
    117 H117      -79.1800   26.3548  -76.2269 H         1 UNK         0.3047 
    118 H118      -76.2386   26.2123  -78.2244 H         1 UNK         0.0822 
    119 H119      -76.7484   28.5867  -78.7483 H         1 UNK         0.0807 
    120 H120      -78.4498   28.3401  -78.3517 H         1 UNK         0.0807 
    121 H121      -77.7364   27.5247  -79.7380 H         1 UNK         0.0807 
    122 H122      -77.1727   28.0694  -76.2521 H         1 UNK         0.2946 
    123 H123      -76.7450   26.2163  -73.4043 H         1 UNK         0.1144 
    124 H124      -74.9016   27.8661  -72.6979 H         1 UNK         0.0793 
    125 H125      -74.4151   27.9328  -74.3793 H         1 UNK         0.0793 
    126 H126      -74.3318   26.4202  -73.5053 H         1 UNK         0.0793 
    127 H127      -76.7605   29.0400  -73.7430 H         1 UNK         0.2896 
@<TRIPOS>BOND
     1    1    2 1    
     2    1   67 1    
     3    1   68 1    
     4    1   69 1    
     5    2    3 2    
     6    2    4 am   BACKBONE|DICT|INTERRES
     7    4    5 1    
     8    4   70 1    
     9    5    6 1    
    10    5   65 1    
    11    5   71 1    
    12    6    7 1    
    13    6   72 1    
    14    6   73 1    
    15    7    8 1    
    16    8    9 1    
    17    8   74 1    
    18    8   75 1    
    19    9   10 ar   
    20    9   14 ar   
    21   10   11 ar   
    22   10   76 1    
    23   11   12 ar   
    24   11   48 1    
    25   12   13 ar   
    26   12   77 1    
    27   13   14 ar   
    28   13   15 1    
    29   14   78 1    
    30   15   16 1    
    31   15   79 1    
    32   15   80 1    
    33   16   17 1    
    34   17   18 1    
    35   17   81 1    
    36   17   82 1    
    37   18   19 1    
    38   18   22 1    
    39   18   83 1    
    40   19   20 am   BACKBONE|DICT|INTERRES
    41   19   21 2    
    42   20   84 1    
    43   20   85 1    
    44   22   23 am   BACKBONE|DICT|INTERRES
    45   22   86 1    
    46   23   24 2    
    47   23   25 1    
    48   25   26 1    
    49   25   27 1    
    50   25   87 1    
    51   26   88 1    
    52   26   89 1    
    53   26   90 1    
    54   27   28 am   BACKBONE|DICT|INTERRES
    55   27   91 1    
    56   28   29 2    
    57   28   30 1    
    58   30   31 1    
    59   30   32 1    
    60   30   92 1    
    61   31   93 1    
    62   31   94 1    
    63   31   95 1    
    64   32   33 am   BACKBONE|DICT|INTERRES
    65   32   96 1    
    66   33   34 2    
    67   33   35 1    
    68   35   36 1    
    69   35   37 1    
    70   35   97 1    
    71   36   98 1    
    72   36   99 1    
    73   36  100 1    
    74   37   38 am   BACKBONE|DICT|INTERRES
    75   37  101 1    
    76   38   39 2    
    77   38   40 1    
    78   40   41 1    
    79   40   42 1    
    80   40  102 1    
    81   41  103 1    
    82   41  104 1    
    83   41  105 1    
    84   42   43 am   BACKBONE|DICT|INTERRES
    85   42  106 1    
    86   43   44 2    
    87   43   45 1    
    88   45   46 1    
    89   45   49 1    
    90   45  107 1    
    91   46   47 1    
    92   46  108 1    
    93   46  109 1    
    94   47   48 1    
    95   48  110 1    
    96   48  111 1    
    97   49   50 am   BACKBONE|DICT|INTERRES
    98   49  112 1    
    99   50   51 2    
   100   50   52 1    
   101   52   53 1    
   102   52   54 1    
   103   52  113 1    
   104   53  114 1    
   105   53  115 1    
   106   53  116 1    
   107   54   55 am   BACKBONE|DICT|INTERRES
   108   54  117 1    
   109   55   56 2    
   110   55   57 1    
   111   57   58 1    
   112   57   59 1    
   113   57  118 1    
   114   58  119 1    
   115   58  120 1    
   116   58  121 1    
   117   59   60 am   BACKBONE|DICT|INTERRES
   118   59  122 1    
   119   60   61 2    
   120   60   62 1    
   121   62   63 1    
   122   62   64 1    
   123   62  123 1    
   124   63  124 1    
   125   63  125 1    
   126   63  126 1    
   127   64   65 am   BACKBONE|DICT|INTERRES
   128   64  127 1    
   129   65   66 2    
@<TRIPOS>SUBSTRUCTURE
     1 UNK         1 GROUP             0       ****    0 ROOT    
