@<TRIPOS>MOLECULE
3R135
127   129    1
SMALL
USER_CHARGES


@<TRIPOS>ATOM
      1 CA        -81.8708   28.0493  -69.5070 C.3       0 UNK        -0.1998 
      2 C         -81.4949   27.4625  -70.8587 C.2       0 UNK         0.4909 
      3 O         -80.4084   26.9025  -70.9976 O.2       0 UNK        -0.5240 
      4 N         -82.3941   27.5726  -71.8468 N.am      1 UNK        -0.4739 
      5 CA        -82.2674   27.1504  -73.2551 C.3       1 UNK         0.0864 
      6 C6        -81.0951   27.8261  -74.0113 C.3       11 UNK        -0.0881 
      7 S7        -81.2463   29.6437  -74.0730 S.3       11 UNK        -0.2682 
      8 C8        -79.8571   30.1816  -73.0231 C.3       11 UNK         0.0289 
      9 C9        -78.5012   29.8046  -73.6061 C.ar      11 UNK        -0.0687 
     10 C10       -78.0886   30.3314  -74.8341 C.ar      11 UNK        -0.0823 
     11 C11       -76.8461   29.9862  -75.3742 C.ar      11 UNK        -0.0830 
     12 C12       -75.9930   29.1456  -74.6548 C.ar      11 UNK        -0.1021 
     13 C13       -76.4067   28.5895  -73.4413 C.ar      11 UNK        -0.0753 
     14 C14       -77.6594   28.9242  -72.9192 C.ar      11 UNK        -0.0933 
     15 C15       -75.5160   27.5941  -72.7195 C.3       11 UNK         0.0166 
     16 S16       -74.5843   28.3946  -71.3783 S.3       11 UNK        -0.2615 
     17 C17       -72.9353   27.6310  -71.5620 C.3       11 UNK        -0.0865 
     18 CA        -71.8358   28.6709  -71.9042 C.3       10 UNK         0.0862 
     19 C         -70.4176   28.0271  -71.9091 C.2       10 UNK         0.5551 
     20 N         -69.5945   28.2074  -72.9357 N.am      10 UNK        -0.7319 
     21 O         -70.0490   27.3533  -70.9504 O.2       10 UNK        -0.5018 
     22 N         -72.1488   29.4273  -73.1283 N.am      10 UNK        -0.4509 
     23 C         -71.8568   30.7224  -73.3112 C.2       10 UNK         0.4899 
     24 O         -71.3623   31.4401  -72.4397 O.2       10 UNK        -0.4839 
     25 CA        -72.1559   31.3144  -74.7061 C.3       9 UNK         0.0222 
     26 CB        -71.3618   32.6081  -74.9866 C.3       9 UNK        -0.1966 
     27 N         -71.9716   30.3549  -75.8023 N.am      9 UNK        -0.4218 
     28 C         -70.8665   29.6500  -76.0849 C.2       9 UNK         0.5020 
     29 O         -69.8054   29.7319  -75.4625 O.2       9 UNK        -0.5274 
     30 CA        -70.9986   28.6236  -77.2208 C.3       8 UNK         0.0270 
     31 CB        -69.8249   28.7315  -78.2097 C.3       8 UNK        -0.1976 
     32 N         -71.0797   27.2510  -76.7126 N.am      8 UNK        -0.4313 
     33 C         -72.0046   26.7869  -75.8626 C.2       8 UNK         0.5041 
     34 O         -72.8893   27.4792  -75.3463 O.2       8 UNK        -0.5577 
     35 CA        -71.9522   25.2907  -75.5435 C.3       7 UNK         0.0284 
     36 CB        -71.0938   24.9969  -74.3025 C.3       7 UNK        -0.1958 
     37 N         -73.3294   24.8729  -75.3247 N.am      7 UNK        -0.4454 
     38 C         -73.8535   23.6887  -75.6507 C.2       7 UNK         0.5089 
     39 O         -73.1855   22.7108  -75.9892 O.2       7 UNK        -0.5125 
     40 CA        -75.3913   23.5877  -75.6327 C.3       6 UNK         0.0408 
     41 CB        -75.8785   23.0325  -74.2857 C.3       6 UNK        -0.1791 
     42 N         -76.0886   24.8506  -75.9123 N.am      6 UNK        -0.4762 
     43 C         -75.9740   25.5822  -77.0316 C.2       6 UNK         0.5007 
     44 O         -75.2416   25.2828  -77.9762 O.2       6 UNK        -0.5032 
     45 CA        -76.8663   26.8356  -77.1219 C.3       5 UNK         0.0783 
     46 C46       -76.2455   27.9376  -78.0208 C.3       11 UNK        -0.0857 
     47 S47       -77.2291   29.4766  -78.0635 S.3       11 UNK        -0.2512 
     48 C48       -76.4507   30.4837  -76.7557 C.3       11 UNK         0.0225 
     49 N         -78.2102   26.4356  -77.5420 N.am      5 UNK        -0.4615 
     50 C         -79.1136   25.8994  -76.7124 C.2       4 UNK         0.5053 
     51 O         -78.9266   25.7900  -75.4991 O.2       4 UNK        -0.5105 
     52 CA        -80.4455   25.4064  -77.3110 C.3       4 UNK         0.0263 
     53 CB        -80.4606   25.3131  -78.8546 C.3       4 UNK        -0.1981 
     54 N         -80.8567   24.1391  -76.6952 N.am      4 UNK        -0.4224 
     55 C         -80.2029   22.9657  -76.7451 C.2       3 UNK         0.4895 
     56 O         -79.1888   22.7706  -77.4183 O.2       3 UNK        -0.5091 
     57 CA        -80.7971   21.8103  -75.9109 C.3       3 UNK         0.0250 
     58 CB        -79.7876   20.6696  -75.6528 C.3       3 UNK        -0.1996 
     59 N         -81.4193   22.2654  -74.6596 N.am      3 UNK        -0.4254 
     60 C         -80.8106   22.8617  -73.6229 C.2       2 UNK         0.5004 
     61 O         -79.5950   23.0361  -73.5290 O.2       2 UNK        -0.5226 
     62 CA        -81.7330   23.3773  -72.5054 C.3       2 UNK         0.0269 
     63 CB        -81.2738   22.8800  -71.1240 C.3       2 UNK        -0.1926 
     64 N         -81.7902   24.8401  -72.4928 N.am      2 UNK        -0.4687 
     65 C         -82.2604   25.6190  -73.4760 C.2       1 UNK         0.5165 
     66 O         -82.7183   25.1688  -74.5290 O.2       1 UNK        -0.5079 
     67 H67       -81.8720   27.2690  -68.7465 H         1 UNK         0.0900 
     68 H68       -81.1460   28.8088  -69.2152 H         1 UNK         0.0900 
     69 H69       -82.8579   28.5110  -69.5218 H         1 UNK         0.0900 
     70 H70       -83.2754   28.0196  -71.6338 H         1 UNK         0.2959 
     71 H71       -83.1885   27.4923  -73.7306 H         1 UNK         0.1079 
     72 H72       -81.0712   27.4869  -75.0467 H         1 UNK         0.0837 
     73 H73       -80.1356   27.5332  -73.5827 H         1 UNK         0.0837 
     74 H74       -79.9818   29.7647  -72.0231 H         1 UNK         0.0685 
     75 H75       -79.9030   31.2654  -72.9097 H         1 UNK         0.0685 
     76 H76       -78.7506   30.9868  -75.3839 H         1 UNK         0.1434 
     77 H77       -75.0298   28.8782  -75.0659 H         1 UNK         0.1329 
     78 H78       -77.9798   28.4926  -71.9802 H         1 UNK         0.1335 
     79 H79       -74.8418   27.1280  -73.4382 H         1 UNK         0.0680 
     80 H80       -76.1192   26.7860  -72.3027 H         1 UNK         0.0680 
     81 H81       -72.7045   27.1319  -70.6189 H         1 UNK         0.1032 
     82 H82       -72.9614   26.8429  -72.3137 H         1 UNK         0.1032 
     83 H83       -71.8166   29.3736  -71.0691 H         1 UNK         0.0461 
     84 H84       -69.8510   28.7887  -73.7267 H         1 UNK         0.3453 
     85 H85       -68.6800   27.7867  -72.9058 H         1 UNK         0.3453 
     86 H86       -72.5188   28.8864  -73.9037 H         1 UNK         0.2984 
     87 H87       -73.2164   31.5709  -74.7014 H         1 UNK         0.0554 
     88 H88       -71.6058   33.0201  -75.9656 H         1 UNK         0.0847 
     89 H89       -70.2854   32.4350  -74.9542 H         1 UNK         0.0847 
     90 H90       -71.5900   33.3778  -74.2482 H         1 UNK         0.0847 
     91 H91       -72.7996   30.1540  -76.3447 H         1 UNK         0.3141 
     92 H92       -71.9195   28.8257  -77.7720 H         1 UNK         0.0743 
     93 H93       -69.7396   29.7452  -78.6037 H         1 UNK         0.0784 
     94 H94       -68.8728   28.4855  -77.7373 H         1 UNK         0.0784 
     95 H95       -69.9594   28.0648  -79.0618 H         1 UNK         0.0784 
     96 H96       -70.3769   26.6111  -77.0537 H         1 UNK         0.3213 
     97 H97       -71.5429   24.7613  -76.4070 H         1 UNK         0.0855 
     98 H98       -71.4831   25.4880  -73.4126 H         1 UNK         0.0814 
     99 H99       -70.0694   25.3438  -74.4436 H         1 UNK         0.0814 
    100 H100      -71.0493   23.9270  -74.0988 H         1 UNK         0.0814 
    101 H101      -73.9524   25.6418  -75.1113 H         1 UNK         0.3105 
    102 H102      -75.6793   22.8819  -76.4144 H         1 UNK         0.0547 
    103 H103      -75.3987   22.0795  -74.0584 H         1 UNK         0.0837 
    104 H104      -75.6580   23.7141  -73.4634 H         1 UNK         0.0837 
    105 H105      -76.9545   22.8562  -74.2967 H         1 UNK         0.0837 
    106 H106      -76.8033   25.1267  -75.2482 H         1 UNK         0.3020 
    107 H107      -76.9420   27.2427  -76.1150 H         1 UNK         0.1245 
    108 H108      -76.1470   27.5803  -79.0475 H         1 UNK         0.0781 
    109 H109      -75.2330   28.1749  -77.6881 H         1 UNK         0.0781 
    110 H110      -76.7689   31.5207  -76.8730 H         1 UNK         0.0836 
    111 H111      -75.3668   30.4837  -76.8784 H         1 UNK         0.0836 
    112 H112      -78.4115   26.4892  -78.5293 H         1 UNK         0.3022 
    113 H113      -81.1996   26.1388  -77.0212 H         1 UNK         0.0747 
    114 H114      -81.4122   24.9202  -79.2127 H         1 UNK         0.0793 
    115 H115      -80.3334   26.2950  -79.3118 H         1 UNK         0.0793 
    116 H116      -79.6722   24.6635  -79.2366 H         1 UNK         0.0793 
    117 H117      -81.6353   24.2169  -76.0491 H         1 UNK         0.3047 
    118 H118      -81.6054   21.3961  -76.5154 H         1 UNK         0.0822 
    119 H119      -78.9007   21.0235  -75.1262 H         1 UNK         0.0807 
    120 H120      -79.4499   20.2277  -76.5910 H         1 UNK         0.0807 
    121 H121      -80.2333   19.8698  -75.0616 H         1 UNK         0.0807 
    122 H122      -82.4275   22.1925  -74.6337 H         1 UNK         0.2946 
    123 H123      -82.7447   23.0037  -72.6784 H         1 UNK         0.1144 
    124 H124      -81.2164   21.7910  -71.1008 H         1 UNK         0.0793 
    125 H125      -81.9684   23.1852  -70.3412 H         1 UNK         0.0793 
    126 H126      -80.2865   23.2647  -70.8643 H         1 UNK         0.0793 
    127 H127      -81.3437   25.3129  -71.7139 H         1 UNK         0.2896 
@<TRIPOS>BOND
     1    1    2 1    
     2    1   67 1    
     3    1   68 1    
     4    1   69 1    
     5    2    3 2    
     6    2    4 am   BACKBONE|DICT|INTERRES
     7    4    5 1    
     8    4   70 1    
     9    5    6 1    
    10    5   65 1    
    11    5   71 1    
    12    6    7 1    
    13    6   72 1    
    14    6   73 1    
    15    7    8 1    
    16    8    9 1    
    17    8   74 1    
    18    8   75 1    
    19    9   10 ar   
    20    9   14 ar   
    21   10   11 ar   
    22   10   76 1    
    23   11   12 ar   
    24   11   48 1    
    25   12   13 ar   
    26   12   77 1    
    27   13   14 ar   
    28   13   15 1    
    29   14   78 1    
    30   15   16 1    
    31   15   79 1    
    32   15   80 1    
    33   16   17 1    
    34   17   18 1    
    35   17   81 1    
    36   17   82 1    
    37   18   19 1    
    38   18   22 1    
    39   18   83 1    
    40   19   20 am   BACKBONE|DICT|INTERRES
    41   19   21 2    
    42   20   84 1    
    43   20   85 1    
    44   22   23 am   BACKBONE|DICT|INTERRES
    45   22   86 1    
    46   23   24 2    
    47   23   25 1    
    48   25   26 1    
    49   25   27 1    
    50   25   87 1    
    51   26   88 1    
    52   26   89 1    
    53   26   90 1    
    54   27   28 am   BACKBONE|DICT|INTERRES
    55   27   91 1    
    56   28   29 2    
    57   28   30 1    
    58   30   31 1    
    59   30   32 1    
    60   30   92 1    
    61   31   93 1    
    62   31   94 1    
    63   31   95 1    
    64   32   33 am   BACKBONE|DICT|INTERRES
    65   32   96 1    
    66   33   34 2    
    67   33   35 1    
    68   35   36 1    
    69   35   37 1    
    70   35   97 1    
    71   36   98 1    
    72   36   99 1    
    73   36  100 1    
    74   37   38 am   BACKBONE|DICT|INTERRES
    75   37  101 1    
    76   38   39 2    
    77   38   40 1    
    78   40   41 1    
    79   40   42 1    
    80   40  102 1    
    81   41  103 1    
    82   41  104 1    
    83   41  105 1    
    84   42   43 am   BACKBONE|DICT|INTERRES
    85   42  106 1    
    86   43   44 2    
    87   43   45 1    
    88   45   46 1    
    89   45   49 1    
    90   45  107 1    
    91   46   47 1    
    92   46  108 1    
    93   46  109 1    
    94   47   48 1    
    95   48  110 1    
    96   48  111 1    
    97   49   50 am   BACKBONE|DICT|INTERRES
    98   49  112 1    
    99   50   51 2    
   100   50   52 1    
   101   52   53 1    
   102   52   54 1    
   103   52  113 1    
   104   53  114 1    
   105   53  115 1    
   106   53  116 1    
   107   54   55 am   BACKBONE|DICT|INTERRES
   108   54  117 1    
   109   55   56 2    
   110   55   57 1    
   111   57   58 1    
   112   57   59 1    
   113   57  118 1    
   114   58  119 1    
   115   58  120 1    
   116   58  121 1    
   117   59   60 am   BACKBONE|DICT|INTERRES
   118   59  122 1    
   119   60   61 2    
   120   60   62 1    
   121   62   63 1    
   122   62   64 1    
   123   62  123 1    
   124   63  124 1    
   125   63  125 1    
   126   63  126 1    
   127   64   65 am   BACKBONE|DICT|INTERRES
   128   64  127 1    
   129   65   66 2    
@<TRIPOS>SUBSTRUCTURE
     1 UNK         1 GROUP             0       ****    0 ROOT    
