@<TRIPOS>MOLECULE
3R135
127   129    1
SMALL
USER_CHARGES


@<TRIPOS>ATOM
      1 CA        -82.4886   26.9877  -73.5080 C.3       0 UNK        -0.1998 
      2 C         -81.7169   27.4836  -74.7215 C.2       0 UNK         0.4909 
      3 O         -82.3034   27.6688  -75.7884 O.2       0 UNK        -0.5240 
      4 N         -80.4044   27.6991  -74.5673 N.am      1 UNK        -0.4739 
      5 CA        -79.4912   28.1037  -75.6386 C.3       1 UNK         0.0864 
      6 C6        -78.2122   28.7852  -75.0869 C.3       11 UNK        -0.0881 
      7 S7        -78.5413   30.4596  -74.4349 S.3       11 UNK        -0.2682 
      8 C8        -78.8924   30.1799  -72.6687 C.3       11 UNK         0.0289 
      9 C9        -77.6493   29.8111  -71.8716 C.ar      11 UNK        -0.0687 
     10 C10       -77.3305   28.4699  -71.6521 C.ar      11 UNK        -0.0823 
     11 C11       -76.2033   28.1113  -70.9024 C.ar      11 UNK        -0.0830 
     12 C12       -75.4126   29.1241  -70.3513 C.ar      11 UNK        -0.1021 
     13 C13       -75.7264   30.4776  -70.5418 C.ar      11 UNK        -0.0753 
     14 C14       -76.8445   30.8080  -71.3142 C.ar      11 UNK        -0.0933 
     15 C15       -74.9331   31.6123  -69.8876 C.3       11 UNK         0.0166 
     16 S16       -73.2798   31.1587  -69.2526 S.3       11 UNK        -0.2615 
     17 C17       -72.1668   31.7459  -70.5775 C.3       11 UNK        -0.0865 
     18 CA        -71.8336   30.7097  -71.6910 C.3       10 UNK         0.0862 
     19 C         -71.1694   29.4060  -71.1713 C.2       10 UNK         0.5551 
     20 N         -70.0104   29.5092  -70.5354 N.am      10 UNK        -0.7319 
     21 O         -71.6879   28.3032  -71.3441 O.2       10 UNK        -0.5018 
     22 N         -72.9678   30.4004  -72.5654 N.am      10 UNK        -0.4509 
     23 C         -73.5392   31.2364  -73.4367 C.2       10 UNK         0.4899 
     24 O         -73.2542   32.4318  -73.5315 O.2       10 UNK        -0.4839 
     25 CA        -74.5717   30.6048  -74.3919 C.3       9 UNK         0.0222 
     26 CB        -75.1311   31.6117  -75.4181 C.3       9 UNK        -0.1966 
     27 N         -74.0557   29.4145  -75.0827 N.am      9 UNK        -0.4218 
     28 C         -72.9288   29.3119  -75.8092 C.2       9 UNK         0.5020 
     29 O         -72.1197   30.2239  -75.9839 O.2       9 UNK        -0.5274 
     30 CA        -72.6676   27.9482  -76.4704 C.3       8 UNK         0.0270 
     31 CB        -71.9602   27.0017  -75.4869 C.3       8 UNK        -0.1976 
     32 N         -73.8943   27.3227  -76.9770 N.am      8 UNK        -0.4313 
     33 C         -74.5992   27.7927  -78.0205 C.2       8 UNK         0.5041 
     34 O         -74.2509   28.7722  -78.6822 O.2       8 UNK        -0.5577 
     35 CA        -75.9247   27.0867  -78.3740 C.3       7 UNK         0.0284 
     36 CB        -76.2613   27.1554  -79.8793 C.3       7 UNK        -0.1958 
     37 N         -76.0249   25.7132  -77.8685 N.am      7 UNK        -0.4454 
     38 C         -75.2720   24.6612  -78.2212 C.2       7 UNK         0.5089 
     39 O         -74.4017   24.7022  -79.0921 O.2       7 UNK        -0.5125 
     40 CA        -75.5258   23.3460  -77.4557 C.3       6 UNK         0.0408 
     41 CB        -74.3014   22.4080  -77.4849 C.3       6 UNK        -0.1791 
     42 N         -75.9878   23.5149  -76.0700 N.am      6 UNK        -0.4762 
     43 C         -75.3838   24.2026  -75.0842 C.2       6 UNK         0.5007 
     44 O         -74.4066   24.9275  -75.2722 O.2       6 UNK        -0.5032 
     45 CA        -75.9524   24.0840  -73.6513 C.3       5 UNK         0.0783 
     46 C46       -76.4217   25.4605  -73.1223 C.3       11 UNK        -0.0857 
     47 S47       -76.8899   25.3786  -71.3595 S.3       11 UNK        -0.2512 
     48 C48       -75.8075   26.6569  -70.6272 C.3       11 UNK         0.0225 
     49 N         -77.0199   23.0843  -73.5463 N.am      5 UNK        -0.4615 
     50 C         -76.8480   21.7575  -73.4924 C.2       4 UNK         0.5053 
     51 O         -75.7462   21.2104  -73.4556 O.2       4 UNK        -0.5105 
     52 CA        -78.1261   20.8940  -73.5146 C.3       4 UNK         0.0263 
     53 CB        -78.5070   20.4662  -72.0882 C.3       4 UNK        -0.1981 
     54 N         -79.2802   21.5508  -74.1471 N.am      4 UNK        -0.4224 
     55 C         -79.3259   21.9620  -75.4231 C.2       3 UNK         0.4895 
     56 O         -78.3975   21.7964  -76.2168 O.2       3 UNK        -0.5091 
     57 CA        -80.5742   22.7286  -75.8881 C.3       3 UNK         0.0250 
     58 CB        -81.4925   23.2077  -74.7436 C.3       3 UNK        -0.1996 
     59 N         -80.1196   23.8882  -76.6491 N.am      3 UNK        -0.4254 
     60 C         -80.5318   24.2566  -77.8646 C.2       2 UNK         0.5004 
     61 O         -81.4243   23.6819  -78.4910 O.2       2 UNK        -0.5226 
     62 CA        -79.8287   25.4932  -78.4634 C.3       2 UNK         0.0269 
     63 CB        -80.3855   25.8861  -79.8445 C.3       2 UNK        -0.1926 
     64 N         -79.9141   26.6545  -77.5714 N.am      2 UNK        -0.4687 
     65 C         -79.1618   26.8600  -76.4833 C.2       1 UNK         0.5165 
     66 O         -78.2749   26.0830  -76.1171 O.2       1 UNK        -0.5079 
     67 H67       -82.9643   26.0331  -73.7310 H         1 UNK         0.0900 
     68 H68       -81.8428   26.8503  -72.6410 H         1 UNK         0.0900 
     69 H69       -83.2669   27.7023  -73.2417 H         1 UNK         0.0900 
     70 H70       -79.9737   27.5002  -73.6774 H         1 UNK         0.2959 
     71 H71       -79.9979   28.8241  -76.2856 H         1 UNK         0.1079 
     72 H72       -77.4792   28.9102  -75.8856 H         1 UNK         0.0837 
     73 H73       -77.7210   28.1677  -74.3368 H         1 UNK         0.0837 
     74 H74       -79.6606   29.4150  -72.5572 H         1 UNK         0.0685 
     75 H75       -79.3257   31.0931  -72.2582 H         1 UNK         0.0685 
     76 H76       -77.9793   27.7130  -72.0643 H         1 UNK         0.1434 
     77 H77       -74.5588   28.8417  -69.7520 H         1 UNK         0.1329 
     78 H78       -77.1036   31.8472  -71.4661 H         1 UNK         0.1335 
     79 H79       -75.5196   31.9845  -69.0468 H         1 UNK         0.0680 
     80 H80       -74.8405   32.4464  -70.5845 H         1 UNK         0.0680 
     81 H81       -71.2411   32.0656  -70.0971 H         1 UNK         0.1032 
     82 H82       -72.5725   32.6588  -71.0135 H         1 UNK         0.1032 
     83 H83       -71.0836   31.1647  -72.3410 H         1 UNK         0.0461 
     84 H84       -69.5666   28.6716  -70.1925 H         1 UNK         0.3453 
     85 H85       -69.5685   30.4034  -70.3912 H         1 UNK         0.3453 
     86 H86       -73.2418   29.4268  -72.5478 H         1 UNK         0.2984 
     87 H87       -75.4028   30.2664  -73.7729 H         1 UNK         0.0554 
     88 H88       -75.6111   32.4529  -74.9164 H         1 UNK         0.0847 
     89 H89       -75.8806   31.1492  -76.0600 H         1 UNK         0.0847 
     90 H90       -74.3458   32.0153  -76.0582 H         1 UNK         0.0847 
     91 H91       -74.6224   28.5835  -75.0008 H         1 UNK         0.3141 
     92 H92       -72.0007   28.1118  -77.3198 H         1 UNK         0.0743 
     93 H93       -71.0129   27.4261  -75.1515 H         1 UNK         0.0784 
     94 H94       -71.7394   26.0399  -75.9505 H         1 UNK         0.0784 
     95 H95       -72.5634   26.8136  -74.5977 H         1 UNK         0.0784 
     96 H96       -74.2103   26.4836  -76.4975 H         1 UNK         0.3213 
     97 H97       -76.6945   27.6542  -77.8528 H         1 UNK         0.0855 
     98 H98       -75.4879   26.6895  -80.4902 H         1 UNK         0.0814 
     99 H99       -76.3550   28.1897  -80.2124 H         1 UNK         0.0814 
    100 H100      -77.2070   26.6609  -80.0993 H         1 UNK         0.0814 
    101 H101      -76.7047   25.5798  -77.1238 H         1 UNK         0.3105 
    102 H102      -76.3383   22.8450  -77.9838 H         1 UNK         0.0547 
    103 H103      -74.5063   21.4727  -76.9641 H         1 UNK         0.0837 
    104 H104      -73.4310   22.8691  -77.0166 H         1 UNK         0.0837 
    105 H105      -74.0241   22.1517  -78.5081 H         1 UNK         0.0837 
    106 H106      -76.8084   22.9649  -75.8354 H         1 UNK         0.3020 
    107 H107      -75.1172   23.7533  -73.0293 H         1 UNK         0.1245 
    108 H108      -77.2825   25.8163  -73.6890 H         1 UNK         0.0781 
    109 H109      -75.6410   26.2131  -73.2502 H         1 UNK         0.0781 
    110 H110      -74.7827   26.4911  -70.9638 H         1 UNK         0.0836 
    111 H111      -75.8011   26.5045  -69.5469 H         1 UNK         0.0836 
    112 H112      -77.9618   23.4443  -73.5340 H         1 UNK         0.3022 
    113 H113      -77.8991   19.9963  -74.0937 H         1 UNK         0.0747 
    114 H114      -79.3559   19.7823  -72.0909 H         1 UNK         0.0793 
    115 H115      -77.6788   19.9485  -71.6019 H         1 UNK         0.0793 
    116 H116      -78.7657   21.3233  -71.4648 H         1 UNK         0.0793 
    117 H117      -80.0821   21.7228  -73.5576 H         1 UNK         0.3047 
    118 H118      -81.1378   22.0502  -76.5320 H         1 UNK         0.0822 
    119 H119      -82.3343   23.7780  -75.1372 H         1 UNK         0.0807 
    120 H120      -80.9658   23.8506  -74.0369 H         1 UNK         0.0807 
    121 H121      -81.9151   22.3682  -74.1902 H         1 UNK         0.0807 
    122 H122      -79.3617   24.4239  -76.2388 H         1 UNK         0.2946 
    123 H123      -78.7789   25.2239  -78.5967 H         1 UNK         0.1144 
    124 H124      -79.8423   26.7323  -80.2656 H         1 UNK         0.0793 
    125 H125      -81.4407   26.1573  -79.7919 H         1 UNK         0.0793 
    126 H126      -80.2946   25.0612  -80.5524 H         1 UNK         0.0793 
    127 H127      -80.6854   27.2866  -77.7400 H         1 UNK         0.2896 
@<TRIPOS>BOND
     1    1    2 1    
     2    1   67 1    
     3    1   68 1    
     4    1   69 1    
     5    2    3 2    
     6    2    4 am   BACKBONE|DICT|INTERRES
     7    4    5 1    
     8    4   70 1    
     9    5    6 1    
    10    5   65 1    
    11    5   71 1    
    12    6    7 1    
    13    6   72 1    
    14    6   73 1    
    15    7    8 1    
    16    8    9 1    
    17    8   74 1    
    18    8   75 1    
    19    9   10 ar   
    20    9   14 ar   
    21   10   11 ar   
    22   10   76 1    
    23   11   12 ar   
    24   11   48 1    
    25   12   13 ar   
    26   12   77 1    
    27   13   14 ar   
    28   13   15 1    
    29   14   78 1    
    30   15   16 1    
    31   15   79 1    
    32   15   80 1    
    33   16   17 1    
    34   17   18 1    
    35   17   81 1    
    36   17   82 1    
    37   18   19 1    
    38   18   22 1    
    39   18   83 1    
    40   19   20 am   BACKBONE|DICT|INTERRES
    41   19   21 2    
    42   20   84 1    
    43   20   85 1    
    44   22   23 am   BACKBONE|DICT|INTERRES
    45   22   86 1    
    46   23   24 2    
    47   23   25 1    
    48   25   26 1    
    49   25   27 1    
    50   25   87 1    
    51   26   88 1    
    52   26   89 1    
    53   26   90 1    
    54   27   28 am   BACKBONE|DICT|INTERRES
    55   27   91 1    
    56   28   29 2    
    57   28   30 1    
    58   30   31 1    
    59   30   32 1    
    60   30   92 1    
    61   31   93 1    
    62   31   94 1    
    63   31   95 1    
    64   32   33 am   BACKBONE|DICT|INTERRES
    65   32   96 1    
    66   33   34 2    
    67   33   35 1    
    68   35   36 1    
    69   35   37 1    
    70   35   97 1    
    71   36   98 1    
    72   36   99 1    
    73   36  100 1    
    74   37   38 am   BACKBONE|DICT|INTERRES
    75   37  101 1    
    76   38   39 2    
    77   38   40 1    
    78   40   41 1    
    79   40   42 1    
    80   40  102 1    
    81   41  103 1    
    82   41  104 1    
    83   41  105 1    
    84   42   43 am   BACKBONE|DICT|INTERRES
    85   42  106 1    
    86   43   44 2    
    87   43   45 1    
    88   45   46 1    
    89   45   49 1    
    90   45  107 1    
    91   46   47 1    
    92   46  108 1    
    93   46  109 1    
    94   47   48 1    
    95   48  110 1    
    96   48  111 1    
    97   49   50 am   BACKBONE|DICT|INTERRES
    98   49  112 1    
    99   50   51 2    
   100   50   52 1    
   101   52   53 1    
   102   52   54 1    
   103   52  113 1    
   104   53  114 1    
   105   53  115 1    
   106   53  116 1    
   107   54   55 am   BACKBONE|DICT|INTERRES
   108   54  117 1    
   109   55   56 2    
   110   55   57 1    
   111   57   58 1    
   112   57   59 1    
   113   57  118 1    
   114   58  119 1    
   115   58  120 1    
   116   58  121 1    
   117   59   60 am   BACKBONE|DICT|INTERRES
   118   59  122 1    
   119   60   61 2    
   120   60   62 1    
   121   62   63 1    
   122   62   64 1    
   123   62  123 1    
   124   63  124 1    
   125   63  125 1    
   126   63  126 1    
   127   64   65 am   BACKBONE|DICT|INTERRES
   128   64  127 1    
   129   65   66 2    
@<TRIPOS>SUBSTRUCTURE
     1 UNK         1 GROUP             0       ****    0 ROOT    
