@<TRIPOS>MOLECULE
3R135
127   129    1
SMALL
USER_CHARGES


@<TRIPOS>ATOM
      1 CA        -77.5475   23.3808  -70.3501 C.3       0 UNK        -0.1998 
      2 C         -76.6295   24.5989  -70.4270 C.2       0 UNK         0.4909 
      3 O         -75.4115   24.4359  -70.3978 O.2       0 UNK        -0.5240 
      4 N         -77.1539   25.8284  -70.5135 N.am      1 UNK        -0.4739 
      5 CA        -78.5707   26.1825  -70.6343 C.3       1 UNK         0.0864 
      6 C6        -78.7797   27.6696  -70.2547 C.3       11 UNK        -0.0881 
      7 S7        -80.5364   28.1208  -70.0270 S.3       11 UNK        -0.2682 
      8 C8        -80.5408   29.9058  -70.4042 C.3       11 UNK         0.0289 
      9 C9        -79.8885   30.2585  -71.7377 C.ar      11 UNK        -0.0687 
     10 C10       -80.3244   29.6709  -72.9327 C.ar      11 UNK        -0.0823 
     11 C11       -79.7186   30.0068  -74.1484 C.ar      11 UNK        -0.0830 
     12 C12       -78.6943   30.9571  -74.1642 C.ar      11 UNK        -0.1021 
     13 C13       -78.2354   31.5330  -72.9787 C.ar      11 UNK        -0.0753 
     14 C14       -78.8373   31.1821  -71.7681 C.ar      11 UNK        -0.0933 
     15 C15       -77.0975   32.5413  -73.0240 C.3       11 UNK         0.0166 
     16 S16       -75.5129   31.7523  -73.4527 S.3       11 UNK        -0.2615 
     17 C17       -74.9388   31.1460  -71.8256 C.3       11 UNK        -0.0865 
     18 CA        -74.0739   29.8567  -71.8958 C.3       10 UNK         0.0862 
     19 C         -74.9375   28.5640  -71.9905 C.2       10 UNK         0.5551 
     20 N         -74.8501   27.7686  -73.0501 N.am      10 UNK        -0.7319 
     21 O         -75.6771   28.2613  -71.0592 O.2       10 UNK        -0.5018 
     22 N         -73.0090   29.9650  -72.9046 N.am      10 UNK        -0.4509 
     23 C         -71.8990   29.2218  -72.9232 C.2       10 UNK         0.4899 
     24 O         -71.5599   28.4554  -72.0193 O.2       10 UNK        -0.4839 
     25 CA        -71.0325   29.3280  -74.1882 C.3       9 UNK         0.0222 
     26 CB        -69.6295   29.8633  -73.8570 C.3       9 UNK        -0.1966 
     27 N         -70.9218   28.0190  -74.8343 N.am      9 UNK        -0.4218 
     28 C         -71.9463   27.3652  -75.3974 C.2       9 UNK         0.5020 
     29 O         -73.0821   27.8339  -75.5105 O.2       9 UNK        -0.5274 
     30 CA        -71.6711   25.9222  -75.8375 C.3       8 UNK         0.0270 
     31 CB        -72.0875   24.9469  -74.7232 C.3       8 UNK        -0.1976 
     32 N         -72.4084   25.5932  -77.0569 N.am      8 UNK        -0.4313 
     33 C         -71.9717   25.8469  -78.2965 C.2       8 UNK         0.5041 
     34 O         -70.9015   26.4091  -78.5358 O.2       8 UNK        -0.5577 
     35 CA        -72.8405   25.3781  -79.4737 C.3       7 UNK         0.0284 
     36 CB        -72.6143   23.8826  -79.7549 C.3       7 UNK        -0.1958 
     37 N         -74.2699   25.6266  -79.2685 N.am      7 UNK        -0.4454 
     38 C         -75.0983   26.1047  -80.2102 C.2       7 UNK         0.5089 
     39 O         -74.7368   26.3992  -81.3505 O.2       7 UNK        -0.5125 
     40 CA        -76.5879   26.2786  -79.8456 C.3       6 UNK         0.0408 
     41 CB        -77.4221   25.1430  -80.4582 C.3       6 UNK        -0.1791 
     42 N         -76.8334   26.3316  -78.4035 N.am      6 UNK        -0.4762 
     43 C         -76.4555   27.3450  -77.6097 C.2       6 UNK         0.5007 
     44 O         -75.9926   28.3997  -78.0461 O.2       6 UNK        -0.5032 
     45 CA        -76.5654   27.1534  -76.0800 C.3       5 UNK         0.0783 
     46 C46       -77.5712   28.1450  -75.4482 C.3       11 UNK        -0.0857 
     47 S47       -79.3324   27.7363  -75.7273 S.3       11 UNK        -0.2512 
     48 C48       -80.1504   29.3451  -75.4517 C.3       11 UNK         0.0225 
     49 N         -76.7927   25.7751  -75.6263 N.am      5 UNK        -0.4615 
     50 C         -76.0162   24.7128  -75.8827 C.2       4 UNK         0.5053 
     51 O         -74.9814   24.7644  -76.5470 O.2       4 UNK        -0.5105 
     52 CA        -76.5150   23.3491  -75.3809 C.3       4 UNK         0.0263 
     53 CB        -76.0650   23.1114  -73.9328 C.3       4 UNK        -0.1981 
     54 N         -77.9706   23.2124  -75.4750 N.am      4 UNK        -0.4224 
     55 C         -78.6817   23.2619  -76.6099 C.2       3 UNK         0.4895 
     56 O         -78.1741   23.3683  -77.7260 O.2       3 UNK        -0.5091 
     57 CA        -80.2156   23.2402  -76.4885 C.3       3 UNK         0.0250 
     58 CB        -80.7485   21.8060  -76.3001 C.3       3 UNK        -0.1996 
     59 N         -80.7386   24.1673  -75.4733 N.am      3 UNK        -0.4254 
     60 C         -80.6052   24.1081  -74.1411 C.2       2 UNK         0.5004 
     61 O         -80.0658   23.1762  -73.5379 O.2       2 UNK        -0.5226 
     62 CA        -81.1607   25.3080  -73.3577 C.3       2 UNK         0.0269 
     63 CB        -82.6356   25.0753  -72.9939 C.3       2 UNK        -0.1926 
     64 N         -80.4100   25.5936  -72.1333 N.am      2 UNK        -0.4687 
     65 C         -79.0999   25.8684  -72.0519 C.2       1 UNK         0.5165 
     66 O         -78.3338   25.8887  -73.0194 O.2       1 UNK        -0.5079 
     67 H67       -78.2305   23.4553  -69.5049 H         1 UNK         0.0900 
     68 H68       -76.9611   22.4717  -70.2183 H         1 UNK         0.0900 
     69 H69       -78.1269   23.2659  -71.2659 H         1 UNK         0.0900 
     70 H70       -76.5209   26.6181  -70.6161 H         1 UNK         0.2959 
     71 H71       -79.1291   25.5768  -69.9184 H         1 UNK         0.1079 
     72 H72       -78.2652   27.8920  -69.3184 H         1 UNK         0.0837 
     73 H73       -78.3154   28.3089  -71.0062 H         1 UNK         0.0837 
     74 H74       -80.0467   30.4279  -69.5832 H         1 UNK         0.0685 
     75 H75       -81.5726   30.2591  -70.4134 H         1 UNK         0.0685 
     76 H76       -81.1216   28.9404  -72.9122 H         1 UNK         0.1434 
     77 H77       -78.2275   31.2318  -75.1002 H         1 UNK         0.1329 
     78 H78       -78.4887   31.6322  -70.8487 H         1 UNK         0.1335 
     79 H79       -77.0016   33.0746  -72.0769 H         1 UNK         0.0680 
     80 H80       -77.3254   33.2972  -73.7769 H         1 UNK         0.0680 
     81 H81       -74.3510   31.9450  -71.3714 H         1 UNK         0.1032 
     82 H82       -75.7927   31.0026  -71.1603 H         1 UNK         0.1032 
     83 H83       -73.5741   29.7784  -70.9281 H         1 UNK         0.0461 
     84 H84       -74.2206   27.9844  -73.8141 H         1 UNK         0.3453 
     85 H85       -75.4134   26.9348  -73.0759 H         1 UNK         0.3453 
     86 H86       -73.2295   30.5469  -73.7005 H         1 UNK         0.2984 
     87 H87       -71.5030   30.0171  -74.8932 H         1 UNK         0.0554 
     88 H88       -69.0229   29.9729  -74.7562 H         1 UNK         0.0847 
     89 H89       -69.0956   29.2061  -73.1691 H         1 UNK         0.0847 
     90 H90       -69.6899   30.8456  -73.3865 H         1 UNK         0.0847 
     91 H91       -70.0356   27.5439  -74.7406 H         1 UNK         0.3141 
     92 H92       -70.6014   25.7988  -76.0215 H         1 UNK         0.0743 
     93 H93       -73.1426   25.0530  -74.4672 H         1 UNK         0.0784 
     94 H94       -71.9161   23.9109  -75.0160 H         1 UNK         0.0784 
     95 H95       -71.5148   25.1265  -73.8123 H         1 UNK         0.0784 
     96 H96       -73.3339   25.1901  -76.9153 H         1 UNK         0.3213 
     97 H97       -72.4937   25.9382  -80.3450 H         1 UNK         0.0855 
     98 H98       -72.9668   23.2601  -78.9315 H         1 UNK         0.0814 
     99 H99       -71.5548   23.6669  -79.8992 H         1 UNK         0.0814 
    100 H100      -73.1348   23.5674  -80.6594 H         1 UNK         0.0814 
    101 H101      -74.6488   25.4137  -78.3503 H         1 UNK         0.3105 
    102 H102      -76.9265   27.2207  -80.2815 H         1 UNK         0.0547 
    103 H103      -77.3223   25.1281  -81.5443 H         1 UNK         0.0837 
    104 H104      -77.1045   24.1666  -80.0902 H         1 UNK         0.0837 
    105 H105      -78.4821   25.2585  -80.2317 H         1 UNK         0.0837 
    106 H106      -77.2085   25.4938  -77.9756 H         1 UNK         0.3020 
    107 H107      -75.5791   27.4261  -75.7059 H         1 UNK         0.1245 
    108 H108      -77.3715   29.1549  -75.8084 H         1 UNK         0.0781 
    109 H109      -77.4117   28.1830  -74.3691 H         1 UNK         0.0781 
    110 H110      -81.2313   29.1974  -75.4508 H         1 UNK         0.0836 
    111 H111      -79.9359   30.0002  -76.2976 H         1 UNK         0.0836 
    112 H112      -77.5990   25.6504  -75.0237 H         1 UNK         0.3022 
    113 H113      -76.0677   22.5789  -76.0126 H         1 UNK         0.0747 
    114 H114      -76.3694   22.1275  -73.5758 H         1 UNK         0.0793 
    115 H115      -74.9790   23.1678  -73.8458 H         1 UNK         0.0793 
    116 H116      -76.4844   23.8584  -73.2596 H         1 UNK         0.0793 
    117 H117      -78.4928   23.1389  -74.6051 H         1 UNK         0.3047 
    118 H118      -80.6050   23.6048  -77.4407 H         1 UNK         0.0822 
    119 H119      -81.8376   21.7900  -76.2614 H         1 UNK         0.0807 
    120 H120      -80.3737   21.3419  -75.3876 H         1 UNK         0.0807 
    121 H121      -80.4443   21.1691  -77.1318 H         1 UNK         0.0807 
    122 H122      -81.1856   24.9894  -75.8561 H         1 UNK         0.2946 
    123 H123      -81.0933   26.1963  -73.9876 H         1 UNK         0.1144 
    124 H124      -83.0630   25.9432  -72.4911 H         1 UNK         0.0793 
    125 H125      -82.7563   24.2123  -72.3376 H         1 UNK         0.0793 
    126 H126      -83.2365   24.8923  -73.8859 H         1 UNK         0.0793 
    127 H127      -80.9518   25.6128  -71.2816 H         1 UNK         0.2896 
@<TRIPOS>BOND
     1    1    2 1    
     2    1   67 1    
     3    1   68 1    
     4    1   69 1    
     5    2    3 2    
     6    2    4 am   BACKBONE|DICT|INTERRES
     7    4    5 1    
     8    4   70 1    
     9    5    6 1    
    10    5   65 1    
    11    5   71 1    
    12    6    7 1    
    13    6   72 1    
    14    6   73 1    
    15    7    8 1    
    16    8    9 1    
    17    8   74 1    
    18    8   75 1    
    19    9   10 ar   
    20    9   14 ar   
    21   10   11 ar   
    22   10   76 1    
    23   11   12 ar   
    24   11   48 1    
    25   12   13 ar   
    26   12   77 1    
    27   13   14 ar   
    28   13   15 1    
    29   14   78 1    
    30   15   16 1    
    31   15   79 1    
    32   15   80 1    
    33   16   17 1    
    34   17   18 1    
    35   17   81 1    
    36   17   82 1    
    37   18   19 1    
    38   18   22 1    
    39   18   83 1    
    40   19   20 am   BACKBONE|DICT|INTERRES
    41   19   21 2    
    42   20   84 1    
    43   20   85 1    
    44   22   23 am   BACKBONE|DICT|INTERRES
    45   22   86 1    
    46   23   24 2    
    47   23   25 1    
    48   25   26 1    
    49   25   27 1    
    50   25   87 1    
    51   26   88 1    
    52   26   89 1    
    53   26   90 1    
    54   27   28 am   BACKBONE|DICT|INTERRES
    55   27   91 1    
    56   28   29 2    
    57   28   30 1    
    58   30   31 1    
    59   30   32 1    
    60   30   92 1    
    61   31   93 1    
    62   31   94 1    
    63   31   95 1    
    64   32   33 am   BACKBONE|DICT|INTERRES
    65   32   96 1    
    66   33   34 2    
    67   33   35 1    
    68   35   36 1    
    69   35   37 1    
    70   35   97 1    
    71   36   98 1    
    72   36   99 1    
    73   36  100 1    
    74   37   38 am   BACKBONE|DICT|INTERRES
    75   37  101 1    
    76   38   39 2    
    77   38   40 1    
    78   40   41 1    
    79   40   42 1    
    80   40  102 1    
    81   41  103 1    
    82   41  104 1    
    83   41  105 1    
    84   42   43 am   BACKBONE|DICT|INTERRES
    85   42  106 1    
    86   43   44 2    
    87   43   45 1    
    88   45   46 1    
    89   45   49 1    
    90   45  107 1    
    91   46   47 1    
    92   46  108 1    
    93   46  109 1    
    94   47   48 1    
    95   48  110 1    
    96   48  111 1    
    97   49   50 am   BACKBONE|DICT|INTERRES
    98   49  112 1    
    99   50   51 2    
   100   50   52 1    
   101   52   53 1    
   102   52   54 1    
   103   52  113 1    
   104   53  114 1    
   105   53  115 1    
   106   53  116 1    
   107   54   55 am   BACKBONE|DICT|INTERRES
   108   54  117 1    
   109   55   56 2    
   110   55   57 1    
   111   57   58 1    
   112   57   59 1    
   113   57  118 1    
   114   58  119 1    
   115   58  120 1    
   116   58  121 1    
   117   59   60 am   BACKBONE|DICT|INTERRES
   118   59  122 1    
   119   60   61 2    
   120   60   62 1    
   121   62   63 1    
   122   62   64 1    
   123   62  123 1    
   124   63  124 1    
   125   63  125 1    
   126   63  126 1    
   127   64   65 am   BACKBONE|DICT|INTERRES
   128   64  127 1    
   129   65   66 2    
@<TRIPOS>SUBSTRUCTURE
     1 UNK         1 GROUP             0       ****    0 ROOT    
