@<TRIPOS>MOLECULE
3R135
127   129    1
SMALL
USER_CHARGES


@<TRIPOS>ATOM
      1 CA        -84.4761   26.3332  -72.3542 C.3       0 UNK        -0.1998 
      2 C         -84.3956   27.2323  -73.5787 C.2       0 UNK         0.4909 
      3 O         -85.3565   27.3154  -74.3437 O.2       0 UNK        -0.5240 
      4 N         -83.2524   27.9020  -73.7730 N.am      1 UNK        -0.4739 
      5 CA        -82.9804   28.7920  -74.9111 C.3       1 UNK         0.0864 
      6 C6        -81.9603   29.8968  -74.5275 C.3       11 UNK        -0.0881 
      7 S7        -80.2926   29.2664  -74.1288 S.3       11 UNK        -0.2682 
      8 C8        -80.2051   29.4879  -72.3281 C.3       11 UNK         0.0289 
      9 C9        -78.9090   28.9127  -71.7740 C.ar      11 UNK        -0.0687 
     10 C10       -78.8670   27.5992  -71.2935 C.ar      11 UNK        -0.0823 
     11 C11       -77.6856   27.0746  -70.7580 C.ar      11 UNK        -0.0830 
     12 C12       -76.5376   27.8704  -70.7175 C.ar      11 UNK        -0.1021 
     13 C13       -76.5654   29.1828  -71.1985 C.ar      11 UNK        -0.0753 
     14 C14       -77.7530   29.6989  -71.7267 C.ar      11 UNK        -0.0933 
     15 C15       -75.3139   30.0433  -71.1264 C.3       11 UNK         0.0166 
     16 S16       -74.3391   29.9004  -72.6516 S.3       11 UNK        -0.2615 
     17 C17       -72.7214   30.5585  -72.1149 C.3       11 UNK        -0.0865 
     18 CA        -72.0678   31.5077  -73.1628 C.3       10 UNK         0.0862 
     19 C         -70.7403   32.1422  -72.6451 C.2       10 UNK         0.5551 
     20 N         -69.7453   32.3762  -73.4921 N.am      10 UNK        -0.7319 
     21 O         -70.6198   32.4598  -71.4641 O.2       10 UNK        -0.5018 
     22 N         -71.9873   30.9173  -74.5133 N.am      10 UNK        -0.4509 
     23 C         -71.3302   29.8017  -74.8563 C.2       10 UNK         0.4899 
     24 O         -70.6341   29.1418  -74.0828 O.2       10 UNK        -0.4839 
     25 CA        -71.4793   29.3845  -76.3277 C.3       9 UNK         0.0222 
     26 CB        -70.3566   29.9714  -77.2072 C.3       9 UNK        -0.1966 
     27 N         -71.6288   27.9335  -76.4870 N.am      9 UNK        -0.4218 
     28 C         -70.7013   26.9632  -76.4271 C.2       9 UNK         0.5020 
     29 O         -69.4938   27.1644  -76.2868 O.2       9 UNK        -0.5274 
     30 CA        -71.1847   25.5007  -76.5561 C.3       8 UNK         0.0270 
     31 CB        -70.9715   24.7432  -75.2343 C.3       8 UNK        -0.1976 
     32 N         -72.5864   25.3553  -76.9599 N.am      8 UNK        -0.4313 
     33 C         -73.0858   25.6595  -78.1657 C.2       8 UNK         0.5041 
     34 O         -72.3963   26.0113  -79.1232 O.2       8 UNK        -0.5577 
     35 CA        -74.6176   25.6099  -78.3166 C.3       7 UNK         0.0284 
     36 CB        -75.0629   24.2357  -78.8389 C.3       7 UNK        -0.1958 
     37 N         -75.3412   25.9245  -77.0781 N.am      7 UNK        -0.4454 
     38 C         -75.2741   27.0927  -76.4205 C.2       7 UNK         0.5089 
     39 O         -74.5918   28.0474  -76.7912 O.2       7 UNK        -0.5125 
     40 CA        -76.0662   27.1966  -75.1098 C.3       6 UNK         0.0408 
     41 CB        -77.5493   27.4734  -75.3813 C.3       6 UNK        -0.1791 
     42 N         -75.9387   25.9814  -74.3098 N.am      6 UNK        -0.4762 
     43 C         -74.8626   25.6662  -73.5763 C.2       6 UNK         0.5007 
     44 O         -73.8709   26.3857  -73.4655 O.2       6 UNK        -0.5032 
     45 CA        -74.8729   24.2870  -72.8865 C.3       5 UNK         0.0783 
     46 C46       -75.4865   24.3530  -71.4634 C.3       11 UNK        -0.0857 
     47 S47       -77.3160   24.4036  -71.4400 S.3       11 UNK        -0.2512 
     48 C48       -77.6669   25.6669  -70.1791 C.3       11 UNK         0.0225 
     49 N         -75.5025   23.2486  -73.7088 N.am      5 UNK        -0.4615 
     50 C         -75.0677   22.8348  -74.9055 C.2       4 UNK         0.5053 
     51 O         -74.0359   23.2419  -75.4378 O.2       4 UNK        -0.5105 
     52 CA        -75.9655   21.8329  -75.6535 C.3       4 UNK         0.0263 
     53 CB        -75.6180   20.3928  -75.2452 C.3       4 UNK        -0.1981 
     54 N         -77.4020   22.0677  -75.4566 N.am      4 UNK        -0.4224 
     55 C         -78.0469   23.1929  -75.7954 C.2       3 UNK         0.4895 
     56 O         -77.4974   24.1721  -76.3073 O.2       3 UNK        -0.5091 
     57 CA        -79.5424   23.2502  -75.4670 C.3       3 UNK         0.0250 
     58 CB        -79.7608   23.4593  -73.9552 C.3       3 UNK        -0.1996 
     59 N         -80.1510   24.3496  -76.2128 N.am      3 UNK        -0.4254 
     60 C         -81.4618   24.5173  -76.4112 C.2       2 UNK         0.5004 
     61 O         -82.3240   23.7383  -75.9992 O.2       2 UNK        -0.5226 
     62 CA        -81.8951   25.8021  -77.1236 C.3       2 UNK         0.0269 
     63 CB        -82.9985   25.5385  -78.1687 C.3       2 UNK        -0.1926 
     64 N         -82.3700   26.7076  -76.0834 N.am      2 UNK        -0.4687 
     65 C         -82.5649   28.0274  -76.1936 C.2       1 UNK         0.5165 
     66 O         -82.4154   28.6486  -77.2472 O.2       1 UNK        -0.5079 
     67 H67       -85.3031   26.6426  -71.7157 H         1 UNK         0.0900 
     68 H68       -84.6475   25.3008  -72.6579 H         1 UNK         0.0900 
     69 H69       -83.5612   26.3654  -71.7627 H         1 UNK         0.0900 
     70 H70       -82.4888   27.7902  -73.1219 H         1 UNK         0.2959 
     71 H71       -83.9131   29.3006  -75.1666 H         1 UNK         0.1079 
     72 H72       -82.3417   30.4749  -73.6843 H         1 UNK         0.0837 
     73 H73       -81.8608   30.6135  -75.3449 H         1 UNK         0.0837 
     74 H74       -81.0629   29.0073  -71.8558 H         1 UNK         0.0685 
     75 H75       -80.2754   30.5505  -72.0903 H         1 UNK         0.0685 
     76 H76       -79.7580   26.9871  -71.3255 H         1 UNK         0.1434 
     77 H77       -75.6216   27.4740  -70.3020 H         1 UNK         0.1329 
     78 H78       -77.7779   30.7134  -72.1003 H         1 UNK         0.1335 
     79 H79       -75.5781   31.0889  -70.9605 H         1 UNK         0.0680 
     80 H80       -74.7059   29.7369  -70.2736 H         1 UNK         0.0680 
     81 H81       -72.0638   29.7158  -71.8959 H         1 UNK         0.1032 
     82 H82       -72.8541   31.0865  -71.1689 H         1 UNK         0.1032 
     83 H83       -72.7414   32.3580  -73.2740 H         1 UNK         0.0461 
     84 H84       -68.8945   32.7970  -73.1531 H         1 UNK         0.3453 
     85 H85       -69.8348   32.1247  -74.4631 H         1 UNK         0.3453 
     86 H86       -72.5159   31.4025  -75.2239 H         1 UNK         0.2984 
     87 H87       -72.4213   29.7970  -76.6927 H         1 UNK         0.0554 
     88 H88       -70.3980   31.0611  -77.2118 H         1 UNK         0.0847 
     89 H89       -70.4459   29.6394  -78.2415 H         1 UNK         0.0847 
     90 H90       -69.3660   29.6920  -76.8474 H         1 UNK         0.0847 
     91 H91       -72.5948   27.6402  -76.5904 H         1 UNK         0.3141 
     92 H92       -70.5676   25.0272  -77.3224 H         1 UNK         0.0743 
     93 H93       -69.9276   24.7859  -74.9208 H         1 UNK         0.0784 
     94 H94       -71.5715   25.1670  -74.4282 H         1 UNK         0.0784 
     95 H95       -71.2362   23.6900  -75.3321 H         1 UNK         0.0784 
     96 H96       -73.2226   24.9795  -76.2638 H         1 UNK         0.3213 
     97 H97       -74.8987   26.3637  -79.0549 H         1 UNK         0.0855 
     98 H98       -74.7471   23.4336  -78.1728 H         1 UNK         0.0814 
     99 H99       -74.6264   24.0334  -79.8178 H         1 UNK         0.0814 
    100 H100      -76.1463   24.1792  -78.9474 H         1 UNK         0.0814 
    101 H101      -75.9729   25.2109  -76.7215 H         1 UNK         0.3105 
    102 H102      -75.6697   28.0334  -74.5323 H         1 UNK         0.0547 
    103 H103      -77.9912   26.7457  -76.0607 H         1 UNK         0.0837 
    104 H104      -77.6843   28.4595  -75.8269 H         1 UNK         0.0837 
    105 H105      -78.1186   27.4516  -74.4529 H         1 UNK         0.0837 
    106 H106      -76.6892   25.3087  -74.3790 H         1 UNK         0.3020 
    107 H107      -73.8233   24.0037  -72.7755 H         1 UNK         0.1245 
    108 H108      -75.0770   25.1978  -70.9071 H         1 UNK         0.0781 
    109 H109      -75.1839   23.4668  -70.9037 H         1 UNK         0.0781 
    110 H110      -76.9442   25.5926  -69.3650 H         1 UNK         0.0836 
    111 H111      -78.6381   25.4470  -69.7330 H         1 UNK         0.0836 
    112 H112      -76.3662   22.8703  -73.3481 H         1 UNK         0.3022 
    113 H113      -75.7612   21.9391  -76.7198 H         1 UNK         0.0747 
    114 H114      -76.1766   19.6665  -75.8359 H         1 UNK         0.0793 
    115 H115      -74.5579   20.1883  -75.4030 H         1 UNK         0.0793 
    116 H116      -75.8324   20.2068  -74.1919 H         1 UNK         0.0793 
    117 H117      -77.9282   21.3145  -75.0365 H         1 UNK         0.3047 
    118 H118      -79.9984   22.3091  -75.7819 H         1 UNK         0.0822 
    119 H119      -80.8182   23.4180  -73.6944 H         1 UNK         0.0807 
    120 H120      -79.3780   24.4268  -73.6280 H         1 UNK         0.0807 
    121 H121      -79.2599   22.6902  -73.3664 H         1 UNK         0.0807 
    122 H122      -79.4808   25.0026  -76.5996 H         1 UNK         0.2946 
    123 H123      -81.0322   26.2482  -77.6234 H         1 UNK         0.1144 
    124 H124      -83.2558   26.4450  -78.7162 H         1 UNK         0.0793 
    125 H125      -83.9106   25.1584  -77.7067 H         1 UNK         0.0793 
    126 H126      -82.6709   24.8010  -78.9024 H         1 UNK         0.0793 
    127 H127      -82.5188   26.2817  -75.1786 H         1 UNK         0.2896 
@<TRIPOS>BOND
     1    1    2 1    
     2    1   67 1    
     3    1   68 1    
     4    1   69 1    
     5    2    3 2    
     6    2    4 am   BACKBONE|DICT|INTERRES
     7    4    5 1    
     8    4   70 1    
     9    5    6 1    
    10    5   65 1    
    11    5   71 1    
    12    6    7 1    
    13    6   72 1    
    14    6   73 1    
    15    7    8 1    
    16    8    9 1    
    17    8   74 1    
    18    8   75 1    
    19    9   10 ar   
    20    9   14 ar   
    21   10   11 ar   
    22   10   76 1    
    23   11   12 ar   
    24   11   48 1    
    25   12   13 ar   
    26   12   77 1    
    27   13   14 ar   
    28   13   15 1    
    29   14   78 1    
    30   15   16 1    
    31   15   79 1    
    32   15   80 1    
    33   16   17 1    
    34   17   18 1    
    35   17   81 1    
    36   17   82 1    
    37   18   19 1    
    38   18   22 1    
    39   18   83 1    
    40   19   20 am   BACKBONE|DICT|INTERRES
    41   19   21 2    
    42   20   84 1    
    43   20   85 1    
    44   22   23 am   BACKBONE|DICT|INTERRES
    45   22   86 1    
    46   23   24 2    
    47   23   25 1    
    48   25   26 1    
    49   25   27 1    
    50   25   87 1    
    51   26   88 1    
    52   26   89 1    
    53   26   90 1    
    54   27   28 am   BACKBONE|DICT|INTERRES
    55   27   91 1    
    56   28   29 2    
    57   28   30 1    
    58   30   31 1    
    59   30   32 1    
    60   30   92 1    
    61   31   93 1    
    62   31   94 1    
    63   31   95 1    
    64   32   33 am   BACKBONE|DICT|INTERRES
    65   32   96 1    
    66   33   34 2    
    67   33   35 1    
    68   35   36 1    
    69   35   37 1    
    70   35   97 1    
    71   36   98 1    
    72   36   99 1    
    73   36  100 1    
    74   37   38 am   BACKBONE|DICT|INTERRES
    75   37  101 1    
    76   38   39 2    
    77   38   40 1    
    78   40   41 1    
    79   40   42 1    
    80   40  102 1    
    81   41  103 1    
    82   41  104 1    
    83   41  105 1    
    84   42   43 am   BACKBONE|DICT|INTERRES
    85   42  106 1    
    86   43   44 2    
    87   43   45 1    
    88   45   46 1    
    89   45   49 1    
    90   45  107 1    
    91   46   47 1    
    92   46  108 1    
    93   46  109 1    
    94   47   48 1    
    95   48  110 1    
    96   48  111 1    
    97   49   50 am   BACKBONE|DICT|INTERRES
    98   49  112 1    
    99   50   51 2    
   100   50   52 1    
   101   52   53 1    
   102   52   54 1    
   103   52  113 1    
   104   53  114 1    
   105   53  115 1    
   106   53  116 1    
   107   54   55 am   BACKBONE|DICT|INTERRES
   108   54  117 1    
   109   55   56 2    
   110   55   57 1    
   111   57   58 1    
   112   57   59 1    
   113   57  118 1    
   114   58  119 1    
   115   58  120 1    
   116   58  121 1    
   117   59   60 am   BACKBONE|DICT|INTERRES
   118   59  122 1    
   119   60   61 2    
   120   60   62 1    
   121   62   63 1    
   122   62   64 1    
   123   62  123 1    
   124   63  124 1    
   125   63  125 1    
   126   63  126 1    
   127   64   65 am   BACKBONE|DICT|INTERRES
   128   64  127 1    
   129   65   66 2    
@<TRIPOS>SUBSTRUCTURE
     1 UNK         1 GROUP             0       ****    0 ROOT    
