@<TRIPOS>MOLECULE
3R135
127   129    1
SMALL
USER_CHARGES


@<TRIPOS>ATOM
      1 CA        -86.1321   30.1957  -76.2593 C.3       0 UNK        -0.1998 
      2 C         -84.9351   29.4404  -75.7007 C.2       0 UNK         0.4909 
      3 O         -85.0956   28.6458  -74.7736 O.2       0 UNK        -0.5240 
      4 N         -83.7407   29.6901  -76.2560 N.am      1 UNK        -0.4739 
      5 CA        -82.4699   29.0382  -75.9110 C.3       1 UNK         0.0864 
      6 C6        -82.0323   29.3291  -74.4462 C.3       11 UNK        -0.0881 
      7 S7        -80.2223   29.3780  -74.2800 S.3       11 UNK        -0.2682 
      8 C8        -80.0282   29.5262  -72.4808 C.3       11 UNK         0.0289 
      9 C9        -78.6556   29.0395  -72.0408 C.ar      11 UNK        -0.0687 
     10 C10       -78.5202   27.7851  -71.4370 C.ar      11 UNK        -0.0823 
     11 C11       -77.2684   27.3355  -71.0095 C.ar      11 UNK        -0.0830 
     12 C12       -76.1475   28.1411  -71.2123 C.ar      11 UNK        -0.1021 
     13 C13       -76.2614   29.3947  -71.8217 C.ar      11 UNK        -0.0753 
     14 C14       -77.5230   29.8401  -72.2307 C.ar      11 UNK        -0.0933 
     15 C15       -75.0204   30.2451  -72.0769 C.3       11 UNK         0.0166 
     16 S16       -73.8512   30.2235  -70.6735 S.3       11 UNK        -0.2615 
     17 C17       -72.2706   30.6965  -71.4591 C.3       11 UNK        -0.0865 
     18 CA        -71.4986   29.5517  -72.1904 C.3       10 UNK         0.0862 
     19 C         -71.3148   28.2455  -71.3684 C.2       10 UNK         0.5551 
     20 N         -70.7244   28.3373  -70.1844 N.am      10 UNK        -0.7319 
     21 O         -71.6844   27.1512  -71.7906 O.2       10 UNK        -0.5018 
     22 N         -72.0354   29.2876  -73.5300 N.am      10 UNK        -0.4509 
     23 C         -71.8603   30.0876  -74.5878 C.2       10 UNK         0.4899 
     24 O         -71.2010   31.1286  -74.5553 O.2       10 UNK        -0.4839 
     25 CA        -72.5552   29.6600  -75.8912 C.3       9 UNK         0.0222 
     26 CB        -72.1983   30.5533  -77.0982 C.3       9 UNK        -0.1966 
     27 N         -72.3430   28.2468  -76.2069 N.am      9 UNK        -0.4218 
     28 C         -71.1894   27.6150  -76.4685 C.2       9 UNK         0.5020 
     29 O         -70.0841   28.1585  -76.4695 O.2       9 UNK        -0.5274 
     30 CA        -71.2826   26.1101  -76.7884 C.3       8 UNK         0.0270 
     31 CB        -70.8908   25.2825  -75.5533 C.3       8 UNK        -0.1976 
     32 N         -72.6148   25.6947  -77.2403 N.am      8 UNK        -0.4313 
     33 C         -73.1755   26.0324  -78.4108 C.2       8 UNK         0.5041 
     34 O         -72.5841   26.6363  -79.3062 O.2       8 UNK        -0.5577 
     35 CA        -74.6642   25.6826  -78.5876 C.3       7 UNK         0.0284 
     36 CB        -74.8418   24.2213  -79.0299 C.3       7 UNK        -0.1958 
     37 N         -75.4419   25.9403  -77.3699 N.am      7 UNK        -0.4454 
     38 C         -75.6785   27.1625  -76.8683 C.2       7 UNK         0.5089 
     39 O         -75.3256   28.2064  -77.4145 O.2       7 UNK        -0.5125 
     40 CA        -76.3954   27.2368  -75.5133 C.3       6 UNK         0.0408 
     41 CB        -77.9131   27.2272  -75.7148 C.3       6 UNK        -0.1791 
     42 N         -76.0087   26.1368  -74.6305 N.am      6 UNK        -0.4762 
     43 C         -74.8481   26.0834  -73.9598 C.2       6 UNK         0.5007 
     44 O         -74.0127   26.9889  -73.9813 O.2       6 UNK        -0.5032 
     45 CA        -74.5317   24.7751  -73.1994 C.3       5 UNK         0.0783 
     46 C46       -74.9558   24.8207  -71.7113 C.3       11 UNK        -0.0857 
     47 S47       -76.7586   24.6397  -71.4476 S.3       11 UNK        -0.2512 
     48 C48       -77.1304   25.9981  -70.2979 C.3       11 UNK         0.0225 
     49 N         -75.0725   23.5881  -73.8665 N.am      5 UNK        -0.4615 
     50 C         -74.6974   23.1397  -75.0680 C.2       4 UNK         0.5053 
     51 O         -73.7942   23.6473  -75.7292 O.2       4 UNK        -0.5105 
     52 CA        -75.4855   21.9547  -75.6502 C.3       4 UNK         0.0263 
     53 CB        -74.7669   20.6327  -75.3389 C.3       4 UNK        -0.1981 
     54 N         -76.8784   21.8734  -75.1929 N.am      4 UNK        -0.4224 
     55 C         -77.8218   22.8011  -75.4141 C.2       3 UNK         0.4895 
     56 O         -77.6017   23.8661  -75.9948 O.2       3 UNK        -0.5091 
     57 CA        -79.2337   22.4434  -74.9143 C.3       3 UNK         0.0250 
     58 CB        -79.2904   22.3093  -73.3769 C.3       3 UNK        -0.1996 
     59 N         -80.2870   23.3339  -75.4252 N.am      3 UNK        -0.4254 
     60 C         -80.5945   24.5849  -75.0484 C.2       2 UNK         0.5004 
     61 O         -80.0374   25.2135  -74.1461 O.2       2 UNK        -0.5226 
     62 CA        -81.7827   25.2176  -75.7860 C.3       2 UNK         0.0269 
     63 CB        -83.1109   24.5835  -75.3218 C.3       2 UNK        -0.1926 
     64 N         -81.8185   26.6631  -75.5556 N.am      2 UNK        -0.4687 
     65 C         -82.4812   27.5420  -76.3191 C.2       1 UNK         0.5165 
     66 O         -83.0862   27.2095  -77.3428 O.2       1 UNK        -0.5079 
     67 H67       -86.8683   29.4941  -76.6504 H         1 UNK         0.0900 
     68 H68       -86.6050   30.7834  -75.4730 H         1 UNK         0.0900 
     69 H69       -85.8483   30.8732  -77.0644 H         1 UNK         0.0900 
     70 H70       -83.6907   30.3326  -77.0348 H         1 UNK         0.2959 
     71 H71       -81.7403   29.5032  -76.5763 H         1 UNK         0.1079 
     72 H72       -82.4653   28.6119  -73.7461 H         1 UNK         0.0837 
     73 H73       -82.4008   30.3072  -74.1324 H         1 UNK         0.0837 
     74 H74       -80.8087   28.9535  -71.9776 H         1 UNK         0.0685 
     75 H75       -80.1689   30.5670  -72.1858 H         1 UNK         0.0685 
     76 H76       -79.3910   27.1598  -71.2930 H         1 UNK         0.1434 
     77 H77       -75.1768   27.7952  -70.8903 H         1 UNK         0.1329 
     78 H78       -77.6265   30.8040  -72.7100 H         1 UNK         0.1335 
     79 H79       -74.5397   29.8579  -72.9735 H         1 UNK         0.0680 
     80 H80       -75.2938   31.2798  -72.2887 H         1 UNK         0.0680 
     81 H81       -71.6359   31.1018  -70.6700 H         1 UNK         0.1032 
     82 H82       -72.4470   31.5377  -72.1308 H         1 UNK         0.1032 
     83 H83       -70.4777   29.9061  -72.3479 H         1 UNK         0.0461 
     84 H84       -70.4135   29.2243  -69.8214 H         1 UNK         0.3453 
     85 H85       -70.5937   27.4999  -69.6391 H         1 UNK         0.3453 
     86 H86       -72.5677   28.4254  -73.6219 H         1 UNK         0.2984 
     87 H87       -73.6256   29.7686  -75.7103 H         1 UNK         0.0554 
     88 H88       -72.4680   31.5928  -76.9082 H         1 UNK         0.0847 
     89 H89       -72.7348   30.2384  -77.9935 H         1 UNK         0.0847 
     90 H90       -71.1309   30.5298  -77.3200 H         1 UNK         0.0847 
     91 H91       -73.1794   27.6798  -76.1928 H         1 UNK         0.3141 
     92 H92       -70.5714   25.8964  -77.5889 H         1 UNK         0.0743 
     93 H93       -69.8804   25.5278  -75.2231 H         1 UNK         0.0784 
     94 H94       -71.5617   25.4712  -74.7142 H         1 UNK         0.0784 
     95 H95       -70.9124   24.2135  -75.7667 H         1 UNK         0.0784 
     96 H96       -73.1437   25.0957  -76.6069 H         1 UNK         0.3213 
     97 H97       -75.0640   26.3238  -79.3764 H         1 UNK         0.0855 
     98 H98       -74.3967   23.5230  -78.3221 H         1 UNK         0.0814 
     99 H99       -74.3614   24.0502  -79.9941 H         1 UNK         0.0814 
    100 H100      -75.8950   23.9631  -79.1422 H         1 UNK         0.0814 
    101 H101      -75.7995   25.1397  -76.8644 H         1 UNK         0.3105 
    102 H102      -76.1260   28.1788  -75.0300 H         1 UNK         0.0547 
    103 H103      -78.2506   26.3611  -76.2833 H         1 UNK         0.0837 
    104 H104      -78.2393   28.1171  -76.2538 H         1 UNK         0.0837 
    105 H105      -78.4257   27.2154  -74.7541 H         1 UNK         0.0837 
    106 H106      -76.6370   25.3432  -74.5943 H         1 UNK         0.3020 
    107 H107      -73.4432   24.6819  -73.2186 H         1 UNK         0.1245 
    108 H108      -74.5753   25.7217  -71.2321 H         1 UNK         0.0781 
    109 H109      -74.4735   23.9980  -71.1813 H         1 UNK         0.0781 
    110 H110      -76.3602   26.0524  -69.5268 H         1 UNK         0.0836 
    111 H111      -78.0591   25.7636  -69.7755 H         1 UNK         0.0836 
    112 H112      -75.8349   23.1274  -73.3913 H         1 UNK         0.3022 
    113 H113      -75.5072   22.0818  -76.7340 H         1 UNK         0.0747 
    114 H114      -75.2536   19.7899  -75.8302 H         1 UNK         0.0793 
    115 H115      -73.7346   20.6576  -75.6918 H         1 UNK         0.0793 
    116 H116      -74.7399   20.4292  -74.2676 H         1 UNK         0.0793 
    117 H117      -77.1415   21.0237  -74.7142 H         1 UNK         0.3047 
    118 H118      -79.4646   21.4633  -75.3350 H         1 UNK         0.0822 
    119 H119      -80.2973   22.0656  -73.0381 H         1 UNK         0.0807 
    120 H120      -78.9847   23.2274  -72.8758 H         1 UNK         0.0807 
    121 H121      -78.6328   21.5163  -73.0199 H         1 UNK         0.0807 
    122 H122      -80.8184   22.9438  -76.1910 H         1 UNK         0.2946 
    123 H123      -81.6449   25.0369  -76.8547 H         1 UNK         0.1144 
    124 H124      -83.9618   24.9852  -75.8720 H         1 UNK         0.0793 
    125 H125      -83.2874   24.7610  -74.2602 H         1 UNK         0.0793 
    126 H126      -83.1136   23.5040  -75.4768 H         1 UNK         0.0793 
    127 H127      -81.2666   26.9828  -74.7675 H         1 UNK         0.2896 
@<TRIPOS>BOND
     1    1    2 1    
     2    1   67 1    
     3    1   68 1    
     4    1   69 1    
     5    2    3 2    
     6    2    4 am   BACKBONE|DICT|INTERRES
     7    4    5 1    
     8    4   70 1    
     9    5    6 1    
    10    5   65 1    
    11    5   71 1    
    12    6    7 1    
    13    6   72 1    
    14    6   73 1    
    15    7    8 1    
    16    8    9 1    
    17    8   74 1    
    18    8   75 1    
    19    9   10 ar   
    20    9   14 ar   
    21   10   11 ar   
    22   10   76 1    
    23   11   12 ar   
    24   11   48 1    
    25   12   13 ar   
    26   12   77 1    
    27   13   14 ar   
    28   13   15 1    
    29   14   78 1    
    30   15   16 1    
    31   15   79 1    
    32   15   80 1    
    33   16   17 1    
    34   17   18 1    
    35   17   81 1    
    36   17   82 1    
    37   18   19 1    
    38   18   22 1    
    39   18   83 1    
    40   19   20 am   BACKBONE|DICT|INTERRES
    41   19   21 2    
    42   20   84 1    
    43   20   85 1    
    44   22   23 am   BACKBONE|DICT|INTERRES
    45   22   86 1    
    46   23   24 2    
    47   23   25 1    
    48   25   26 1    
    49   25   27 1    
    50   25   87 1    
    51   26   88 1    
    52   26   89 1    
    53   26   90 1    
    54   27   28 am   BACKBONE|DICT|INTERRES
    55   27   91 1    
    56   28   29 2    
    57   28   30 1    
    58   30   31 1    
    59   30   32 1    
    60   30   92 1    
    61   31   93 1    
    62   31   94 1    
    63   31   95 1    
    64   32   33 am   BACKBONE|DICT|INTERRES
    65   32   96 1    
    66   33   34 2    
    67   33   35 1    
    68   35   36 1    
    69   35   37 1    
    70   35   97 1    
    71   36   98 1    
    72   36   99 1    
    73   36  100 1    
    74   37   38 am   BACKBONE|DICT|INTERRES
    75   37  101 1    
    76   38   39 2    
    77   38   40 1    
    78   40   41 1    
    79   40   42 1    
    80   40  102 1    
    81   41  103 1    
    82   41  104 1    
    83   41  105 1    
    84   42   43 am   BACKBONE|DICT|INTERRES
    85   42  106 1    
    86   43   44 2    
    87   43   45 1    
    88   45   46 1    
    89   45   49 1    
    90   45  107 1    
    91   46   47 1    
    92   46  108 1    
    93   46  109 1    
    94   47   48 1    
    95   48  110 1    
    96   48  111 1    
    97   49   50 am   BACKBONE|DICT|INTERRES
    98   49  112 1    
    99   50   51 2    
   100   50   52 1    
   101   52   53 1    
   102   52   54 1    
   103   52  113 1    
   104   53  114 1    
   105   53  115 1    
   106   53  116 1    
   107   54   55 am   BACKBONE|DICT|INTERRES
   108   54  117 1    
   109   55   56 2    
   110   55   57 1    
   111   57   58 1    
   112   57   59 1    
   113   57  118 1    
   114   58  119 1    
   115   58  120 1    
   116   58  121 1    
   117   59   60 am   BACKBONE|DICT|INTERRES
   118   59  122 1    
   119   60   61 2    
   120   60   62 1    
   121   62   63 1    
   122   62   64 1    
   123   62  123 1    
   124   63  124 1    
   125   63  125 1    
   126   63  126 1    
   127   64   65 am   BACKBONE|DICT|INTERRES
   128   64  127 1    
   129   65   66 2    
@<TRIPOS>SUBSTRUCTURE
     1 UNK         1 GROUP             0       ****    0 ROOT    
