@<TRIPOS>MOLECULE
3R135
127   129    1
SMALL
USER_CHARGES


@<TRIPOS>ATOM
      1 CA        -83.4966   26.0450  -70.5571 C.3       0 UNK        -0.1998 
      2 C         -82.0128   26.3829  -70.6649 C.2       0 UNK         0.4909 
      3 O         -81.2480   26.0350  -69.7681 O.2       0 UNK        -0.5240 
      4 N         -81.5536   27.0480  -71.7335 N.am      1 UNK        -0.4739 
      5 CA        -82.3333   27.5207  -72.8895 C.3       1 UNK         0.0864 
      6 C6        -81.8128   28.8776  -73.4321 C.3       11 UNK        -0.0881 
      7 S7        -81.8208   30.1747  -72.1412 S.3       11 UNK        -0.2682 
      8 C8        -80.3265   31.1562  -72.5319 C.3       11 UNK         0.0289 
      9 C9        -79.0167   30.3692  -72.5974 C.ar      11 UNK        -0.0687 
     10 C10       -78.8167   29.1919  -71.8668 C.ar      11 UNK        -0.0823 
     11 C11       -77.6427   28.4501  -72.0168 C.ar      11 UNK        -0.0830 
     12 C12       -76.6246   28.9313  -72.8445 C.ar      11 UNK        -0.1021 
     13 C13       -76.7852   30.1354  -73.5356 C.ar      11 UNK        -0.0753 
     14 C14       -77.9874   30.8389  -73.4192 C.ar      11 UNK        -0.0933 
     15 C15       -75.6766   30.6724  -74.4288 C.3       11 UNK         0.0166 
     16 S16       -74.7513   32.0135  -73.6174 S.3       11 UNK        -0.2615 
     17 C17       -73.6319   31.0864  -72.5091 C.3       11 UNK        -0.0865 
     18 CA        -72.1797   31.0332  -73.0554 C.3       10 UNK         0.0862 
     19 C         -71.1861   30.4352  -72.0148 C.2       10 UNK         0.5551 
     20 N         -70.3404   29.4718  -72.3643 N.am      10 UNK        -0.7319 
     21 O         -71.1731   30.8638  -70.8636 O.2       10 UNK        -0.5018 
     22 N         -72.1286   30.3728  -74.3679 N.am      10 UNK        -0.4509 
     23 C         -71.2977   30.6925  -75.3653 C.2       10 UNK         0.4899 
     24 O         -70.4999   31.6307  -75.3251 O.2       10 UNK        -0.4839 
     25 CA        -71.3770   29.7899  -76.6120 C.3       9 UNK         0.0222 
     26 CB        -70.1636   29.9530  -77.5517 C.3       9 UNK        -0.1966 
     27 N         -71.5938   28.3737  -76.2825 N.am      9 UNK        -0.4218 
     28 C         -70.7984   27.5833  -75.5395 C.2       9 UNK         0.5020 
     29 O         -69.7724   27.9819  -74.9862 O.2       9 UNK        -0.5274 
     30 CA        -71.2157   26.1123  -75.3361 C.3       8 UNK         0.0270 
     31 CB        -71.4938   25.8347  -73.8487 C.3       8 UNK        -0.1976 
     32 N         -72.3824   25.7195  -76.1326 N.am      8 UNK        -0.4313 
     33 C         -72.3507   25.4833  -77.4539 C.2       8 UNK         0.5041 
     34 O         -71.3089   25.4683  -78.1107 O.2       8 UNK        -0.5577 
     35 CA        -73.6886   25.2574  -78.1881 C.3       7 UNK         0.0284 
     36 CB        -73.8544   23.7715  -78.5470 C.3       7 UNK        -0.1958 
     37 N         -74.8808   25.7125  -77.4649 N.am      7 UNK        -0.4454 
     38 C         -75.1196   26.9623  -77.0407 C.2       7 UNK         0.5089 
     39 O         -74.3635   27.9127  -77.2466 O.2       7 UNK        -0.5125 
     40 CA        -76.3673   27.1650  -76.1630 C.3       6 UNK         0.0408 
     41 CB        -77.5950   27.4930  -77.0223 C.3       6 UNK        -0.1791 
     42 N         -76.6549   26.0192  -75.2923 N.am      6 UNK        -0.4762 
     43 C         -75.8201   25.5473  -74.3506 C.2       6 UNK         0.5007 
     44 O         -74.7223   26.0492  -74.1098 O.2       6 UNK        -0.5032 
     45 CA        -76.2372   24.2656  -73.6027 C.3       5 UNK         0.0783 
     46 C46       -76.9876   24.4963  -72.2605 C.3       11 UNK        -0.0857 
     47 S47       -78.2903   25.7792  -72.2443 S.3       11 UNK        -0.2512 
     48 C48       -77.4861   27.1196  -71.3005 C.3       11 UNK         0.0225 
     49 N         -76.9389   23.3483  -74.5069 N.am      5 UNK        -0.4615 
     50 C         -76.3027   22.4481  -75.2732 C.2       4 UNK         0.5053 
     51 O         -75.0855   22.2668  -75.2444 O.2       4 UNK        -0.5105 
     52 CA        -77.1471   21.6020  -76.2415 C.3       4 UNK         0.0263 
     53 CB        -77.6445   20.3260  -75.5436 C.3       4 UNK        -0.1981 
     54 N         -78.2879   22.3172  -76.8114 N.am      4 UNK        -0.4224 
     55 C         -78.2066   23.3884  -77.6136 C.2       3 UNK         0.4895 
     56 O         -77.1479   23.8947  -77.9831 O.2       3 UNK        -0.5091 
     57 CA        -79.5414   24.0305  -78.0329 C.3       3 UNK         0.0250 
     58 CB        -80.0717   23.3784  -79.3195 C.3       3 UNK        -0.1996 
     59 N         -80.5711   23.9688  -76.9881 N.am      3 UNK        -0.4254 
     60 C         -80.4398   24.4948  -75.7625 C.2       2 UNK         0.5004 
     61 O         -79.4291   25.0876  -75.3771 O.2       2 UNK        -0.5226 
     62 CA        -81.5885   24.2345  -74.7810 C.3       2 UNK         0.0269 
     63 CB        -81.3351   22.9271  -74.0117 C.3       2 UNK        -0.1926 
     64 N         -81.6929   25.3276  -73.8187 N.am      2 UNK        -0.4687 
     65 C         -82.3878   26.4570  -74.0088 C.2       1 UNK         0.5165 
     66 O         -83.0717   26.6692  -75.0113 O.2       1 UNK        -0.5079 
     67 H67       -84.0872   26.9501  -70.4178 H         1 UNK         0.0900 
     68 H68       -83.6785   25.3945  -69.7017 H         1 UNK         0.0900 
     69 H69       -83.8492   25.5241  -71.4467 H         1 UNK         0.0900 
     70 H70       -80.5600   27.2190  -71.7957 H         1 UNK         0.2959 
     71 H71       -83.3678   27.6873  -72.5856 H         1 UNK         0.1079 
     72 H72       -80.8108   28.7608  -73.8478 H         1 UNK         0.0837 
     73 H73       -82.4394   29.2281  -74.2546 H         1 UNK         0.0837 
     74 H74       -80.5003   31.6614  -73.4834 H         1 UNK         0.0685 
     75 H75       -80.2214   31.9399  -71.7809 H         1 UNK         0.0685 
     76 H76       -79.5869   28.8326  -71.2010 H         1 UNK         0.1434 
     77 H77       -75.7114   28.3632  -72.9573 H         1 UNK         0.1329 
     78 H78       -78.1190   31.7589  -73.9725 H         1 UNK         0.1335 
     79 H79       -76.1113   31.0544  -75.3537 H         1 UNK         0.0680 
     80 H80       -74.9889   29.8789  -74.7233 H         1 UNK         0.0680 
     81 H81       -73.6560   31.5866  -71.5391 H         1 UNK         0.1032 
     82 H82       -74.0162   30.0809  -72.3337 H         1 UNK         0.1032 
     83 H83       -71.8568   32.0678  -73.1863 H         1 UNK         0.0461 
     84 H84       -70.2955   29.1276  -73.3157 H         1 UNK         0.3453 
     85 H85       -69.7046   29.1073  -71.6731 H         1 UNK         0.3453 
     86 H86       -72.7267   29.5696  -74.4847 H         1 UNK         0.2984 
     87 H87       -72.2637   30.1104  -77.1610 H         1 UNK         0.0554 
     88 H88       -70.2553   29.3166  -78.4319 H         1 UNK         0.0847 
     89 H89       -69.2275   29.7012  -77.0520 H         1 UNK         0.0847 
     90 H90       -70.0768   30.9813  -77.9046 H         1 UNK         0.0847 
     91 H91       -72.4513   27.9765  -76.6566 H         1 UNK         0.3141 
     92 H92       -70.3702   25.4918  -75.6404 H         1 UNK         0.0743 
     93 H93       -70.5900   25.9697  -73.2531 H         1 UNK         0.0784 
     94 H94       -72.2469   26.5116  -73.4442 H         1 UNK         0.0784 
     95 H95       -71.8370   24.8125  -73.6883 H         1 UNK         0.0784 
     96 H96       -73.2765   25.7251  -75.6530 H         1 UNK         0.3213 
     97 H97       -73.6387   25.8293  -79.1169 H         1 UNK         0.0855 
     98 H98       -74.7241   23.6115  -79.1844 H         1 UNK         0.0814 
     99 H99       -73.9724   23.1534  -77.6563 H         1 UNK         0.0814 
    100 H100      -72.9857   23.3984  -79.0913 H         1 UNK         0.0814 
    101 H101      -75.6038   25.0160  -77.3091 H         1 UNK         0.3105 
    102 H102      -76.1768   28.0190  -75.5154 H         1 UNK         0.0547 
    103 H103      -77.8060   26.6986  -77.7365 H         1 UNK         0.0837 
    104 H104      -78.4832   27.6419  -76.4075 H         1 UNK         0.0837 
    105 H105      -77.4357   28.4090  -77.5923 H         1 UNK         0.0837 
    106 H106      -77.5732   25.5913  -75.3879 H         1 UNK         0.3020 
    107 H107      -75.2960   23.7889  -73.3171 H         1 UNK         0.1245 
    108 H108      -76.2586   24.7250  -71.4822 H         1 UNK         0.0781 
    109 H109      -77.4449   23.5608  -71.9346 H         1 UNK         0.0781 
    110 H110      -77.9307   27.1716  -70.3054 H         1 UNK         0.0836 
    111 H111      -76.4260   26.9138  -71.1488 H         1 UNK         0.0836 
    112 H112      -77.9328   23.4959  -74.6204 H         1 UNK         0.3022 
    113 H113      -76.4973   21.3082  -77.0688 H         1 UNK         0.0747 
    114 H114      -76.8104   19.7584  -75.1282 H         1 UNK         0.0793 
    115 H115      -78.1647   19.6687  -76.2406 H         1 UNK         0.0793 
    116 H116      -78.3253   20.5528  -74.7219 H         1 UNK         0.0793 
    117 H117      -79.2059   21.9774  -76.5663 H         1 UNK         0.3047 
    118 H118      -79.3511   25.0838  -78.2422 H         1 UNK         0.0822 
    119 H119      -79.3290   23.4309  -80.1171 H         1 UNK         0.0807 
    120 H120      -80.9675   23.8837  -79.6812 H         1 UNK         0.0807 
    121 H121      -80.3157   22.3257  -79.1707 H         1 UNK         0.0807 
    122 H122      -81.4256   23.4844  -77.2245 H         1 UNK         0.2946 
    123 H123      -82.5251   24.1464  -75.3368 H         1 UNK         0.1144 
    124 H124      -82.1405   22.7216  -73.3062 H         1 UNK         0.0793 
    125 H125      -80.4005   22.9630  -73.4496 H         1 UNK         0.0793 
    126 H126      -81.2768   22.0750  -74.6900 H         1 UNK         0.0793 
    127 H127      -81.0994   25.2683  -73.0032 H         1 UNK         0.2896 
@<TRIPOS>BOND
     1    1    2 1    
     2    1   67 1    
     3    1   68 1    
     4    1   69 1    
     5    2    3 2    
     6    2    4 am   BACKBONE|DICT|INTERRES
     7    4    5 1    
     8    4   70 1    
     9    5    6 1    
    10    5   65 1    
    11    5   71 1    
    12    6    7 1    
    13    6   72 1    
    14    6   73 1    
    15    7    8 1    
    16    8    9 1    
    17    8   74 1    
    18    8   75 1    
    19    9   10 ar   
    20    9   14 ar   
    21   10   11 ar   
    22   10   76 1    
    23   11   12 ar   
    24   11   48 1    
    25   12   13 ar   
    26   12   77 1    
    27   13   14 ar   
    28   13   15 1    
    29   14   78 1    
    30   15   16 1    
    31   15   79 1    
    32   15   80 1    
    33   16   17 1    
    34   17   18 1    
    35   17   81 1    
    36   17   82 1    
    37   18   19 1    
    38   18   22 1    
    39   18   83 1    
    40   19   20 am   BACKBONE|DICT|INTERRES
    41   19   21 2    
    42   20   84 1    
    43   20   85 1    
    44   22   23 am   BACKBONE|DICT|INTERRES
    45   22   86 1    
    46   23   24 2    
    47   23   25 1    
    48   25   26 1    
    49   25   27 1    
    50   25   87 1    
    51   26   88 1    
    52   26   89 1    
    53   26   90 1    
    54   27   28 am   BACKBONE|DICT|INTERRES
    55   27   91 1    
    56   28   29 2    
    57   28   30 1    
    58   30   31 1    
    59   30   32 1    
    60   30   92 1    
    61   31   93 1    
    62   31   94 1    
    63   31   95 1    
    64   32   33 am   BACKBONE|DICT|INTERRES
    65   32   96 1    
    66   33   34 2    
    67   33   35 1    
    68   35   36 1    
    69   35   37 1    
    70   35   97 1    
    71   36   98 1    
    72   36   99 1    
    73   36  100 1    
    74   37   38 am   BACKBONE|DICT|INTERRES
    75   37  101 1    
    76   38   39 2    
    77   38   40 1    
    78   40   41 1    
    79   40   42 1    
    80   40  102 1    
    81   41  103 1    
    82   41  104 1    
    83   41  105 1    
    84   42   43 am   BACKBONE|DICT|INTERRES
    85   42  106 1    
    86   43   44 2    
    87   43   45 1    
    88   45   46 1    
    89   45   49 1    
    90   45  107 1    
    91   46   47 1    
    92   46  108 1    
    93   46  109 1    
    94   47   48 1    
    95   48  110 1    
    96   48  111 1    
    97   49   50 am   BACKBONE|DICT|INTERRES
    98   49  112 1    
    99   50   51 2    
   100   50   52 1    
   101   52   53 1    
   102   52   54 1    
   103   52  113 1    
   104   53  114 1    
   105   53  115 1    
   106   53  116 1    
   107   54   55 am   BACKBONE|DICT|INTERRES
   108   54  117 1    
   109   55   56 2    
   110   55   57 1    
   111   57   58 1    
   112   57   59 1    
   113   57  118 1    
   114   58  119 1    
   115   58  120 1    
   116   58  121 1    
   117   59   60 am   BACKBONE|DICT|INTERRES
   118   59  122 1    
   119   60   61 2    
   120   60   62 1    
   121   62   63 1    
   122   62   64 1    
   123   62  123 1    
   124   63  124 1    
   125   63  125 1    
   126   63  126 1    
   127   64   65 am   BACKBONE|DICT|INTERRES
   128   64  127 1    
   129   65   66 2    
@<TRIPOS>SUBSTRUCTURE
     1 UNK         1 GROUP             0       ****    0 ROOT    
