@<TRIPOS>MOLECULE
3R135
127   129    1
SMALL
USER_CHARGES


@<TRIPOS>ATOM
      1 CA        -83.8222   29.7209  -70.3188 C.3       0 UNK        -0.1998 
      2 C         -83.0537   29.0119  -71.4236 C.2       0 UNK         0.4909 
      3 O         -82.4796   27.9496  -71.1809 O.2       0 UNK        -0.5240 
      4 N         -83.0482   29.5882  -72.6347 N.am      1 UNK        -0.4739 
      5 CA        -82.3928   29.1062  -73.8609 C.3       1 UNK         0.0864 
      6 C6        -80.8644   28.8953  -73.6952 C.3       11 UNK        -0.0881 
      7 S7        -79.9776   28.8536  -75.2887 S.3       11 UNK        -0.2682 
      8 C8        -78.3941   29.6459  -74.8519 C.3       11 UNK         0.0289 
      9 C9        -77.6852   28.9668  -73.6826 C.ar      11 UNK        -0.0687 
     10 C10       -77.4998   27.5800  -73.6665 C.ar      11 UNK        -0.0823 
     11 C11       -76.9138   26.9527  -72.5631 C.ar      11 UNK        -0.0830 
     12 C12       -76.4798   27.7266  -71.4832 C.ar      11 UNK        -0.1021 
     13 C13       -76.6436   29.1150  -71.4922 C.ar      11 UNK        -0.0753 
     14 C14       -77.2444   29.7291  -72.5955 C.ar      11 UNK        -0.0933 
     15 C15       -76.2337   29.9360  -70.2774 C.3       11 UNK         0.0166 
     16 S16       -74.4526   30.3095  -70.2557 S.3       11 UNK        -0.2615 
     17 C17       -74.3334   31.7137  -71.4234 C.3       11 UNK        -0.0865 
     18 CA        -73.3549   31.4649  -72.6011 C.3       10 UNK         0.0862 
     19 C         -71.8640   31.4866  -72.1434 C.2       10 UNK         0.5551 
     20 N         -71.0893   30.4207  -72.3105 N.am      10 UNK        -0.7319 
     21 O         -71.3979   32.5040  -71.6359 O.2       10 UNK        -0.5018 
     22 N         -73.7557   30.2887  -73.3833 N.am      10 UNK        -0.4509 
     23 C         -73.3558   30.0234  -74.6303 C.2       10 UNK         0.4899 
     24 O         -72.6798   30.7853  -75.3244 O.2       10 UNK        -0.4839 
     25 CA        -73.7857   28.6603  -75.1919 C.3       9 UNK         0.0222 
     26 CB        -74.7504   28.8432  -76.3718 C.3       9 UNK        -0.1966 
     27 N         -72.6457   27.8375  -75.6088 N.am      9 UNK        -0.4218 
     28 C         -71.6279   27.4675  -74.8127 C.2       9 UNK         0.5020 
     29 O         -71.5418   27.7974  -73.6281 O.2       9 UNK        -0.5274 
     30 CA        -70.5357   26.5512  -75.3978 C.3       8 UNK         0.0270 
     31 CB        -70.4086   25.2572  -74.5736 C.3       8 UNK        -0.1976 
     32 N         -70.7631   26.1993  -76.8021 N.am      8 UNK        -0.4313 
     33 C         -70.3097   26.9105  -77.8446 C.2       8 UNK         0.5041 
     34 O         -69.6318   27.9319  -77.7269 O.2       8 UNK        -0.5577 
     35 CA        -70.6668   26.4168  -79.2611 C.3       7 UNK         0.0284 
     36 CB        -69.4752   25.6713  -79.8844 C.3       7 UNK        -0.1958 
     37 N         -71.8537   25.5583  -79.3229 N.am      7 UNK        -0.4454 
     38 C         -73.0981   25.9455  -79.0134 C.2       7 UNK         0.5089 
     39 O         -73.3789   27.0844  -78.6413 O.2       7 UNK        -0.5125 
     40 CA        -74.2150   24.8840  -79.0749 C.3       6 UNK         0.0408 
     41 CB        -73.8008   23.5640  -79.7643 C.3       6 UNK        -0.1791 
     42 N         -74.7698   24.6086  -77.7440 N.am      6 UNK        -0.4762 
     43 C         -74.0892   24.2213  -76.6516 C.2       6 UNK         0.5007 
     44 O         -72.8682   24.0551  -76.6343 O.2       6 UNK        -0.5032 
     45 CA        -74.8944   23.9873  -75.3549 C.3       5 UNK         0.0783 
     46 C46       -74.7546   25.2079  -74.4169 C.3       11 UNK        -0.0857 
     47 S47       -75.1265   24.8113  -72.6814 S.3       11 UNK        -0.2512 
     48 C48       -76.8219   25.4344  -72.5036 C.3       11 UNK         0.0225 
     49 N         -76.2998   23.6509  -75.6322 N.am      5 UNK        -0.4615 
     50 C         -76.7013   22.4563  -76.0837 C.2       4 UNK         0.5053 
     51 O         -75.9516   21.4839  -76.1871 O.2       4 UNK        -0.5105 
     52 CA        -78.1789   22.3364  -76.4975 C.3       4 UNK         0.0263 
     53 CB        -78.4818   21.0099  -77.2208 C.3       4 UNK        -0.1981 
     54 N         -79.0802   22.4627  -75.3516 N.am      4 UNK        -0.4224 
     55 C         -79.5615   23.6171  -74.8772 C.2       3 UNK         0.4895 
     56 O         -79.2173   24.7273  -75.2902 O.2       3 UNK        -0.5091 
     57 CA        -80.5958   23.5134  -73.7512 C.3       3 UNK         0.0250 
     58 CB        -79.9564   23.7186  -72.3679 C.3       3 UNK        -0.1996 
     59 N         -81.6306   24.5206  -73.9673 N.am      3 UNK        -0.4254 
     60 C         -82.9324   24.3582  -73.7006 C.2       2 UNK         0.5004 
     61 O         -83.4006   23.3352  -73.1969 O.2       2 UNK        -0.5226 
     62 CA        -83.8590   25.5362  -74.0454 C.3       2 UNK         0.0269 
     63 CB        -85.2340   25.4417  -73.3560 C.3       2 UNK        -0.1926 
     64 N         -83.2277   26.8029  -73.6781 N.am      2 UNK        -0.4687 
     65 C         -83.0972   27.8728  -74.4685 C.2       1 UNK         0.5165 
     66 O         -83.5223   27.9223  -75.6239 O.2       1 UNK        -0.5079 
     67 H67       -83.1533   29.9616  -69.4930 H         1 UNK         0.0900 
     68 H68       -84.6135   29.0751  -69.9393 H         1 UNK         0.0900 
     69 H69       -84.2779   30.6475  -70.6673 H         1 UNK         0.0900 
     70 H70       -83.5704   30.4456  -72.7552 H         1 UNK         0.2959 
     71 H71       -82.5297   29.9161  -74.5799 H         1 UNK         0.1079 
     72 H72       -80.6402   27.9804  -73.1435 H         1 UNK         0.0837 
     73 H73       -80.4523   29.7102  -73.0978 H         1 UNK         0.0837 
     74 H74       -77.7506   29.6228  -75.7295 H         1 UNK         0.0685 
     75 H75       -78.5813   30.6984  -74.6337 H         1 UNK         0.0685 
     76 H76       -77.8553   26.9857  -74.4975 H         1 UNK         0.1434 
     77 H77       -76.0362   27.2438  -70.6229 H         1 UNK         0.1329 
     78 H78       -77.3942   30.7999  -72.5953 H         1 UNK         0.1335 
     79 H79       -76.8070   30.8628  -70.2222 H         1 UNK         0.0680 
     80 H80       -76.4797   29.3803  -69.3712 H         1 UNK         0.0680 
     81 H81       -74.0417   32.6045  -70.8638 H         1 UNK         0.1032 
     82 H82       -75.3218   31.9419  -71.8230 H         1 UNK         0.1032 
     83 H83       -73.4537   32.3239  -73.2678 H         1 UNK         0.0461 
     84 H84       -71.4465   29.5714  -72.7365 H         1 UNK         0.3453 
     85 H85       -70.1291   30.4606  -72.0096 H         1 UNK         0.3453 
     86 H86       -74.2898   29.5960  -72.8769 H         1 UNK         0.2984 
     87 H87       -74.3133   28.1184  -74.4048 H         1 UNK         0.0554 
     88 H88       -75.2027   27.8974  -76.6703 H         1 UNK         0.0847 
     89 H89       -75.5569   29.5255  -76.1101 H         1 UNK         0.0847 
     90 H90       -74.2456   29.2660  -77.2413 H         1 UNK         0.0847 
     91 H91       -72.6292   27.5547  -76.5811 H         1 UNK         0.3141 
     92 H92       -69.5904   27.0909  -75.3101 H         1 UNK         0.0743 
     93 H93       -70.1454   25.4772  -73.5381 H         1 UNK         0.0784 
     94 H94       -71.3404   24.6918  -74.5560 H         1 UNK         0.0784 
     95 H95       -69.6291   24.6074  -74.9717 H         1 UNK         0.0784 
     96 H96       -71.3431   25.3824  -76.9728 H         1 UNK         0.3213 
     97 H97       -70.8697   27.3029  -79.8667 H         1 UNK         0.0855 
     98 H98       -68.5806   26.2958  -79.8836 H         1 UNK         0.0814 
     99 H99       -69.6744   25.3976  -80.9207 H         1 UNK         0.0814 
    100 H100      -69.2362   24.7603  -79.3342 H         1 UNK         0.0814 
    101 H101      -71.7056   24.5953  -79.5879 H         1 UNK         0.3105 
    102 H102      -75.0204   25.3250  -79.6640 H         1 UNK         0.0547 
    103 H103      -73.4321   23.7435  -80.7752 H         1 UNK         0.0837 
    104 H104      -73.0251   23.0310  -79.2133 H         1 UNK         0.0837 
    105 H105      -74.6533   22.8908  -79.8550 H         1 UNK         0.0837 
    106 H106      -75.7642   24.7558  -77.6484 H         1 UNK         0.3020 
    107 H107      -74.4263   23.1295  -74.8653 H         1 UNK         0.1245 
    108 H108      -73.7267   25.5687  -74.4098 H         1 UNK         0.0781 
    109 H109      -75.3663   26.0397  -74.7659 H         1 UNK         0.0781 
    110 H110      -77.2190   25.0915  -71.5472 H         1 UNK         0.0836 
    111 H111      -77.4436   24.9789  -73.2722 H         1 UNK         0.0836 
    112 H112      -76.9879   24.3869  -75.5365 H         1 UNK         0.3022 
    113 H113      -78.3815   23.1437  -77.2052 H         1 UNK         0.0747 
    114 H114      -79.5146   20.9748  -77.5679 H         1 UNK         0.0793 
    115 H115      -77.8440   20.8883  -78.0976 H         1 UNK         0.0793 
    116 H116      -78.3158   20.1471  -76.5744 H         1 UNK         0.0793 
    117 H117      -79.3731   21.5979  -74.9190 H         1 UNK         0.3047 
    118 H118      -81.0396   22.5159  -73.7912 H         1 UNK         0.0822 
    119 H119      -80.6669   23.4931  -71.5724 H         1 UNK         0.0807 
    120 H120      -79.6259   24.7481  -72.2293 H         1 UNK         0.0807 
    121 H121      -79.0936   23.0662  -72.2267 H         1 UNK         0.0807 
    122 H122      -81.3155   25.3693  -74.4203 H         1 UNK         0.2946 
    123 H123      -84.0161   25.4905  -75.1255 H         1 UNK         0.1144 
    124 H124      -85.8747   26.2780  -73.6359 H         1 UNK         0.0793 
    125 H125      -85.1387   25.4416  -72.2695 H         1 UNK         0.0793 
    126 H126      -85.7558   24.5272  -73.6410 H         1 UNK         0.0793 
    127 H127      -82.8653   26.8774  -72.7299 H         1 UNK         0.2896 
@<TRIPOS>BOND
     1    1    2 1    
     2    1   67 1    
     3    1   68 1    
     4    1   69 1    
     5    2    3 2    
     6    2    4 am   BACKBONE|DICT|INTERRES
     7    4    5 1    
     8    4   70 1    
     9    5    6 1    
    10    5   65 1    
    11    5   71 1    
    12    6    7 1    
    13    6   72 1    
    14    6   73 1    
    15    7    8 1    
    16    8    9 1    
    17    8   74 1    
    18    8   75 1    
    19    9   10 ar   
    20    9   14 ar   
    21   10   11 ar   
    22   10   76 1    
    23   11   12 ar   
    24   11   48 1    
    25   12   13 ar   
    26   12   77 1    
    27   13   14 ar   
    28   13   15 1    
    29   14   78 1    
    30   15   16 1    
    31   15   79 1    
    32   15   80 1    
    33   16   17 1    
    34   17   18 1    
    35   17   81 1    
    36   17   82 1    
    37   18   19 1    
    38   18   22 1    
    39   18   83 1    
    40   19   20 am   BACKBONE|DICT|INTERRES
    41   19   21 2    
    42   20   84 1    
    43   20   85 1    
    44   22   23 am   BACKBONE|DICT|INTERRES
    45   22   86 1    
    46   23   24 2    
    47   23   25 1    
    48   25   26 1    
    49   25   27 1    
    50   25   87 1    
    51   26   88 1    
    52   26   89 1    
    53   26   90 1    
    54   27   28 am   BACKBONE|DICT|INTERRES
    55   27   91 1    
    56   28   29 2    
    57   28   30 1    
    58   30   31 1    
    59   30   32 1    
    60   30   92 1    
    61   31   93 1    
    62   31   94 1    
    63   31   95 1    
    64   32   33 am   BACKBONE|DICT|INTERRES
    65   32   96 1    
    66   33   34 2    
    67   33   35 1    
    68   35   36 1    
    69   35   37 1    
    70   35   97 1    
    71   36   98 1    
    72   36   99 1    
    73   36  100 1    
    74   37   38 am   BACKBONE|DICT|INTERRES
    75   37  101 1    
    76   38   39 2    
    77   38   40 1    
    78   40   41 1    
    79   40   42 1    
    80   40  102 1    
    81   41  103 1    
    82   41  104 1    
    83   41  105 1    
    84   42   43 am   BACKBONE|DICT|INTERRES
    85   42  106 1    
    86   43   44 2    
    87   43   45 1    
    88   45   46 1    
    89   45   49 1    
    90   45  107 1    
    91   46   47 1    
    92   46  108 1    
    93   46  109 1    
    94   47   48 1    
    95   48  110 1    
    96   48  111 1    
    97   49   50 am   BACKBONE|DICT|INTERRES
    98   49  112 1    
    99   50   51 2    
   100   50   52 1    
   101   52   53 1    
   102   52   54 1    
   103   52  113 1    
   104   53  114 1    
   105   53  115 1    
   106   53  116 1    
   107   54   55 am   BACKBONE|DICT|INTERRES
   108   54  117 1    
   109   55   56 2    
   110   55   57 1    
   111   57   58 1    
   112   57   59 1    
   113   57  118 1    
   114   58  119 1    
   115   58  120 1    
   116   58  121 1    
   117   59   60 am   BACKBONE|DICT|INTERRES
   118   59  122 1    
   119   60   61 2    
   120   60   62 1    
   121   62   63 1    
   122   62   64 1    
   123   62  123 1    
   124   63  124 1    
   125   63  125 1    
   126   63  126 1    
   127   64   65 am   BACKBONE|DICT|INTERRES
   128   64  127 1    
   129   65   66 2    
@<TRIPOS>SUBSTRUCTURE
     1 UNK         1 GROUP             0       ****    0 ROOT    
