@<TRIPOS>MOLECULE
3R135
127   129    1
SMALL
USER_CHARGES


@<TRIPOS>ATOM
      1 CA        -80.8875   24.1695  -71.7938 C.3       0 UNK        -0.1998 
      2 C         -80.7240   25.2219  -72.8788 C.2       0 UNK         0.4909 
      3 O         -79.7931   25.1363  -73.6818 O.2       0 UNK        -0.5240 
      4 N         -81.6305   26.2091  -72.9053 N.am      1 UNK        -0.4739 
      5 CA        -81.6405   27.3581  -73.8260 C.3       1 UNK         0.0864 
      6 C6        -80.5027   28.3733  -73.5297 C.3       11 UNK        -0.0881 
      7 S7        -80.7584   29.1697  -71.9091 S.3       11 UNK        -0.2682 
      8 C8        -79.2626   30.2063  -71.7688 C.3       11 UNK         0.0289 
      9 C9        -78.0213   29.5282  -71.1826 C.ar      11 UNK        -0.0687 
     10 C10       -78.0456   28.2589  -70.5854 C.ar      11 UNK        -0.0823 
     11 C11       -76.8859   27.7100  -70.0273 C.ar      11 UNK        -0.0830 
     12 C12       -75.6915   28.4324  -70.0720 C.ar      11 UNK        -0.1021 
     13 C13       -75.6499   29.6968  -70.6619 C.ar      11 UNK        -0.0753 
     14 C14       -76.8167   30.2387  -71.2078 C.ar      11 UNK        -0.0933 
     15 C15       -74.3463   30.4799  -70.6889 C.3       11 UNK         0.0166 
     16 S16       -73.3389   30.0540  -72.1414 S.3       11 UNK        -0.2615 
     17 C17       -74.2427   30.9399  -73.4554 C.3       11 UNK        -0.0865 
     18 CA        -73.5522   30.8274  -74.8369 C.3       10 UNK         0.0862 
     19 C         -74.4251   31.4852  -75.9470 C.2       10 UNK         0.5551 
     20 N         -73.9191   32.4505  -76.7052 N.am      10 UNK        -0.7319 
     21 O         -75.5806   31.1106  -76.1246 O.2       10 UNK        -0.5018 
     22 N         -72.1568   31.3078  -74.7883 N.am      10 UNK        -0.4509 
     23 C         -71.1330   30.9673  -75.5857 C.2       10 UNK         0.4899 
     24 O         -70.0400   31.5232  -75.4827 O.2       10 UNK        -0.4839 
     25 CA        -71.3178   29.8508  -76.6388 C.3       9 UNK         0.0222 
     26 CB        -70.1734   29.8068  -77.6741 C.3       9 UNK        -0.1966 
     27 N         -71.5098   28.5310  -76.0280 N.am      9 UNK        -0.4218 
     28 C         -70.6741   27.8556  -75.2209 C.2       9 UNK         0.5020 
     29 O         -69.5633   28.2645  -74.8800 O.2       9 UNK        -0.5274 
     30 CA        -71.1413   26.4789  -74.6979 C.3       8 UNK         0.0270 
     31 CB        -71.4961   26.5683  -73.2045 C.3       8 UNK        -0.1976 
     32 N         -72.2842   25.9180  -75.4260 N.am      8 UNK        -0.4313 
     33 C         -72.2589   25.5246  -76.7096 C.2       8 UNK         0.5041 
     34 O         -71.2240   25.4503  -77.3731 O.2       8 UNK        -0.5577 
     35 CA        -73.6032   25.1973  -77.3939 C.3       7 UNK         0.0284 
     36 CB        -73.7603   23.6760  -77.5545 C.3       7 UNK        -0.1958 
     37 N         -74.7906   25.7344  -76.7176 N.am      7 UNK        -0.4454 
     38 C         -75.0162   27.0193  -76.4053 C.2       7 UNK         0.5089 
     39 O         -74.2770   27.9378  -76.7582 O.2       7 UNK        -0.5125 
     40 CA        -76.2105   27.3274  -75.4779 C.3       6 UNK         0.0408 
     41 CB        -77.4060   27.8580  -76.2812 C.3       6 UNK        -0.1791 
     42 N         -76.6415   26.1989  -74.6397 N.am      6 UNK        -0.4762 
     43 C         -75.8700   25.5575  -73.7448 C.2       6 UNK         0.5007 
     44 O         -74.6846   25.8321  -73.5542 O.2       6 UNK        -0.5032 
     45 CA        -76.5051   24.3749  -72.9878 C.3       5 UNK         0.0783 
     46 C46       -77.2077   24.8220  -71.6850 C.3       11 UNK        -0.0857 
     47 S47       -76.0453   25.0778  -70.3077 S.3       11 UNK        -0.2512 
     48 C48       -76.9208   26.3498  -69.3450 C.3       11 UNK         0.0225 
     49 N         -77.4346   23.6527  -73.8587 N.am      5 UNK        -0.4615 
     50 C         -77.1210   22.5582  -74.5591 C.2       4 UNK         0.5053 
     51 O         -76.0236   22.0016  -74.5102 O.2       4 UNK        -0.5105 
     52 CA        -78.2115   21.9897  -75.4837 C.3       4 UNK         0.0263 
     53 CB        -79.2833   21.2454  -74.6715 C.3       4 UNK        -0.1981 
     54 N         -78.8624   22.9708  -76.3595 N.am      4 UNK        -0.4224 
     55 C         -78.2511   23.8295  -77.1851 C.2       3 UNK         0.4895 
     56 O         -77.0350   24.0054  -77.2089 O.2       3 UNK        -0.5091 
     57 CA        -79.1206   24.6242  -78.1763 C.3       3 UNK         0.0250 
     58 CB        -79.3072   23.8351  -79.4869 C.3       3 UNK        -0.1996 
     59 N         -80.4070   25.1074  -77.6549 N.am      3 UNK        -0.4254 
     60 C         -81.4909   24.4111  -77.2892 C.2       2 UNK         0.5004 
     61 O         -81.5372   23.1801  -77.2470 O.2       2 UNK        -0.5226 
     62 CA        -82.7154   25.2450  -76.8702 C.3       2 UNK         0.0269 
     63 CB        -84.0068   24.4069  -76.8225 C.3       2 UNK        -0.1926 
     64 N         -82.5131   25.8709  -75.5640 N.am      2 UNK        -0.4687 
     65 C         -81.7225   26.9233  -75.3076 C.2       1 UNK         0.5165 
     66 O         -81.0882   27.5221  -76.1793 O.2       1 UNK        -0.5079 
     67 H67       -81.9277   24.0740  -71.4833 H         1 UNK         0.0900 
     68 H68       -80.5534   23.1962  -72.1496 H         1 UNK         0.0900 
     69 H69       -80.2935   24.4365  -70.9206 H         1 UNK         0.0900 
     70 H70       -82.3665   26.2136  -72.2124 H         1 UNK         0.2959 
     71 H71       -82.5857   27.8752  -73.6509 H         1 UNK         0.1079 
     72 H72       -80.4743   29.1639  -74.2819 H         1 UNK         0.0837 
     73 H73       -79.5257   27.8872  -73.5494 H         1 UNK         0.0837 
     74 H74       -79.0245   30.6181  -72.7508 H         1 UNK         0.0685 
     75 H75       -79.5098   31.0574  -71.1330 H         1 UNK         0.0685 
     76 H76       -78.9654   27.6946  -70.5356 H         1 UNK         0.1434 
     77 H77       -74.7925   28.0088  -69.6450 H         1 UNK         0.1329 
     78 H78       -76.7882   31.2247  -71.6514 H         1 UNK         0.1335 
     79 H79       -73.7697   30.2640  -69.7881 H         1 UNK         0.0680 
     80 H80       -74.5404   31.5536  -70.6737 H         1 UNK         0.0680 
     81 H81       -74.3566   31.9866  -73.1673 H         1 UNK         0.1032 
     82 H82       -75.2491   30.5210  -73.5094 H         1 UNK         0.1032 
     83 H83       -73.5410   29.7655  -75.0682 H         1 UNK         0.0461 
     84 H84       -74.4949   32.8667  -77.4202 H         1 UNK         0.3453 
     85 H85       -72.9824   32.7882  -76.5521 H         1 UNK         0.3453 
     86 H86       -71.9863   32.0180  -74.0924 H         1 UNK         0.2984 
     87 H87       -72.2298   30.0693  -77.1940 H         1 UNK         0.0554 
     88 H88       -70.0787   30.7632  -78.1897 H         1 UNK         0.0847 
     89 H89       -70.3560   29.0461  -78.4331 H         1 UNK         0.0847 
     90 H90       -69.2096   29.5915  -77.2116 H         1 UNK         0.0847 
     91 H91       -72.4158   28.1120  -76.2218 H         1 UNK         0.3141 
     92 H92       -70.3028   25.7885  -74.8100 H         1 UNK         0.0743 
     93 H93       -71.7648   25.5924  -72.7995 H         1 UNK         0.0784 
     94 H94       -70.6527   26.9408  -72.6215 H         1 UNK         0.0784 
     95 H95       -72.3349   27.2439  -73.0314 H         1 UNK         0.0784 
     96 H96       -73.1728   25.9165  -74.9326 H         1 UNK         0.3213 
     97 H97       -73.5686   25.6461  -78.3885 H         1 UNK         0.0855 
     98 H98       -73.9020   23.1819  -76.5922 H         1 UNK         0.0814 
     99 H99       -72.8794   23.2352  -78.0235 H         1 UNK         0.0814 
    100 H100      -74.6137   23.4302  -78.1863 H         1 UNK         0.0814 
    101 H101      -75.5111   25.0586  -76.4804 H         1 UNK         0.3105 
    102 H102      -75.8858   28.1203  -74.8006 H         1 UNK         0.0547 
    103 H103      -77.1146   28.7144  -76.8913 H         1 UNK         0.0837 
    104 H104      -78.2112   28.1909  -75.6272 H         1 UNK         0.0837 
    105 H105      -77.8090   27.1016  -76.9514 H         1 UNK         0.0837 
    106 H106      -77.6009   25.8970  -74.7398 H         1 UNK         0.3020 
    107 H107      -75.6887   23.7024  -72.7130 H         1 UNK         0.1245 
    108 H108      -77.9029   24.0487  -71.3560 H         1 UNK         0.0781 
    109 H109      -77.8103   25.7160  -71.8518 H         1 UNK         0.0781 
    110 H110      -76.4516   26.4316  -68.3635 H         1 UNK         0.0836 
    111 H111      -77.9472   26.0263  -69.1641 H         1 UNK         0.0836 
    112 H112      -78.3662   24.0561  -73.9475 H         1 UNK         0.3022 
    113 H113      -77.7246   21.2640  -76.1381 H         1 UNK         0.0747 
    114 H114      -78.8315   20.5174  -73.9961 H         1 UNK         0.0793 
    115 H115      -79.8772   21.9309  -74.0672 H         1 UNK         0.0793 
    116 H116      -79.9660   20.7007  -75.3241 H         1 UNK         0.0793 
    117 H117      -79.8729   22.9020  -76.4536 H         1 UNK         0.3047 
    118 H118      -78.5553   25.5210  -78.4303 H         1 UNK         0.0822 
    119 H119      -79.8461   24.4223  -80.2305 H         1 UNK         0.0807 
    120 H120      -79.8558   22.9056  -79.3311 H         1 UNK         0.0807 
    121 H121      -78.3421   23.5705  -79.9212 H         1 UNK         0.0807 
    122 H122      -80.4650   26.1126  -77.5213 H         1 UNK         0.2946 
    123 H123      -82.8531   26.0281  -77.6198 H         1 UNK         0.1144 
    124 H124      -83.9528   23.6200  -76.0690 H         1 UNK         0.0793 
    125 H125      -84.1948   23.9257  -77.7833 H         1 UNK         0.0793 
    126 H126      -84.8744   25.0275  -76.5977 H         1 UNK         0.0793 
    127 H127      -82.9594   25.4203  -74.7782 H         1 UNK         0.2896 
@<TRIPOS>BOND
     1    1    2 1    
     2    1   67 1    
     3    1   68 1    
     4    1   69 1    
     5    2    3 2    
     6    2    4 am   BACKBONE|DICT|INTERRES
     7    4    5 1    
     8    4   70 1    
     9    5    6 1    
    10    5   65 1    
    11    5   71 1    
    12    6    7 1    
    13    6   72 1    
    14    6   73 1    
    15    7    8 1    
    16    8    9 1    
    17    8   74 1    
    18    8   75 1    
    19    9   10 ar   
    20    9   14 ar   
    21   10   11 ar   
    22   10   76 1    
    23   11   12 ar   
    24   11   48 1    
    25   12   13 ar   
    26   12   77 1    
    27   13   14 ar   
    28   13   15 1    
    29   14   78 1    
    30   15   16 1    
    31   15   79 1    
    32   15   80 1    
    33   16   17 1    
    34   17   18 1    
    35   17   81 1    
    36   17   82 1    
    37   18   19 1    
    38   18   22 1    
    39   18   83 1    
    40   19   20 am   BACKBONE|DICT|INTERRES
    41   19   21 2    
    42   20   84 1    
    43   20   85 1    
    44   22   23 am   BACKBONE|DICT|INTERRES
    45   22   86 1    
    46   23   24 2    
    47   23   25 1    
    48   25   26 1    
    49   25   27 1    
    50   25   87 1    
    51   26   88 1    
    52   26   89 1    
    53   26   90 1    
    54   27   28 am   BACKBONE|DICT|INTERRES
    55   27   91 1    
    56   28   29 2    
    57   28   30 1    
    58   30   31 1    
    59   30   32 1    
    60   30   92 1    
    61   31   93 1    
    62   31   94 1    
    63   31   95 1    
    64   32   33 am   BACKBONE|DICT|INTERRES
    65   32   96 1    
    66   33   34 2    
    67   33   35 1    
    68   35   36 1    
    69   35   37 1    
    70   35   97 1    
    71   36   98 1    
    72   36   99 1    
    73   36  100 1    
    74   37   38 am   BACKBONE|DICT|INTERRES
    75   37  101 1    
    76   38   39 2    
    77   38   40 1    
    78   40   41 1    
    79   40   42 1    
    80   40  102 1    
    81   41  103 1    
    82   41  104 1    
    83   41  105 1    
    84   42   43 am   BACKBONE|DICT|INTERRES
    85   42  106 1    
    86   43   44 2    
    87   43   45 1    
    88   45   46 1    
    89   45   49 1    
    90   45  107 1    
    91   46   47 1    
    92   46  108 1    
    93   46  109 1    
    94   47   48 1    
    95   48  110 1    
    96   48  111 1    
    97   49   50 am   BACKBONE|DICT|INTERRES
    98   49  112 1    
    99   50   51 2    
   100   50   52 1    
   101   52   53 1    
   102   52   54 1    
   103   52  113 1    
   104   53  114 1    
   105   53  115 1    
   106   53  116 1    
   107   54   55 am   BACKBONE|DICT|INTERRES
   108   54  117 1    
   109   55   56 2    
   110   55   57 1    
   111   57   58 1    
   112   57   59 1    
   113   57  118 1    
   114   58  119 1    
   115   58  120 1    
   116   58  121 1    
   117   59   60 am   BACKBONE|DICT|INTERRES
   118   59  122 1    
   119   60   61 2    
   120   60   62 1    
   121   62   63 1    
   122   62   64 1    
   123   62  123 1    
   124   63  124 1    
   125   63  125 1    
   126   63  126 1    
   127   64   65 am   BACKBONE|DICT|INTERRES
   128   64  127 1    
   129   65   66 2    
@<TRIPOS>SUBSTRUCTURE
     1 UNK         1 GROUP             0       ****    0 ROOT    
