@<TRIPOS>MOLECULE
3R135
127   129    1
SMALL
USER_CHARGES


@<TRIPOS>ATOM
      1 CA        -84.4084   24.8387  -73.7663 C.3       0 UNK        -0.1998 
      2 C         -83.5183   25.9708  -74.2561 C.2       0 UNK         0.4909 
      3 O         -83.2144   26.0397  -75.4478 O.2       0 UNK        -0.5240 
      4 N         -83.1010   26.8621  -73.3477 N.am      1 UNK        -0.4739 
      5 CA        -82.1647   27.9580  -73.6195 C.3       1 UNK         0.0864 
      6 C6        -82.1822   29.0400  -72.5062 C.3       11 UNK        -0.0881 
      7 S7        -82.0044   28.4011  -70.8030 S.3       11 UNK        -0.2682 
      8 C8        -80.5038   29.2617  -70.2111 C.3       11 UNK         0.0289 
      9 C9        -79.1888   28.6475  -70.6884 C.ar      11 UNK        -0.0687 
     10 C10       -79.0274   27.2602  -70.7743 C.ar      11 UNK        -0.0823 
     11 C11       -77.8114   26.6932  -71.1666 C.ar      11 UNK        -0.0830 
     12 C12       -76.7318   27.5390  -71.4457 C.ar      11 UNK        -0.1021 
     13 C13       -76.8723   28.9265  -71.3617 C.ar      11 UNK        -0.0753 
     14 C14       -78.1030   29.4762  -70.9898 C.ar      11 UNK        -0.0933 
     15 C15       -75.6784   29.8185  -71.6588 C.3       11 UNK         0.0166 
     16 S16       -75.4533   30.0373  -73.4489 S.3       11 UNK        -0.2615 
     17 C17       -73.6684   30.3908  -73.5040 C.3       11 UNK        -0.0865 
     18 CA        -73.1764   30.8252  -74.9181 C.3       10 UNK         0.0862 
     19 C         -73.2766   32.3570  -75.1860 C.2       10 UNK         0.5551 
     20 N         -74.3439   33.0018  -74.7349 N.am      10 UNK        -0.7319 
     21 O         -72.4239   32.9619  -75.8342 O.2       10 UNK        -0.5018 
     22 N         -71.8619   30.2498  -75.2320 N.am      10 UNK        -0.4509 
     23 C         -70.7229   30.4488  -74.5524 C.2       10 UNK         0.4899 
     24 O         -70.6232   31.2107  -73.5889 O.2       10 UNK        -0.4839 
     25 CA        -69.4954   29.6312  -75.0138 C.3       9 UNK         0.0222 
     26 CB        -68.4357   29.4610  -73.9040 C.3       9 UNK        -0.1966 
     27 N         -69.8607   28.3316  -75.5967 N.am      9 UNK        -0.4218 
     28 C         -70.5320   27.3333  -75.0008 C.2       9 UNK         0.5020 
     29 O         -70.8440   27.3125  -73.8083 O.2       9 UNK        -0.5274 
     30 CA        -70.9937   26.1929  -75.9247 C.3       8 UNK         0.0270 
     31 CB        -70.7622   24.8148  -75.2817 C.3       8 UNK        -0.1976 
     32 N         -72.4102   26.3310  -76.2784 N.am      8 UNK        -0.4313 
     33 C         -72.9453   27.3537  -76.9666 C.2       8 UNK         0.5041 
     34 O         -72.2855   28.3124  -77.3752 O.2       8 UNK        -0.5577 
     35 CA        -74.4651   27.3184  -77.2374 C.3       7 UNK         0.0284 
     36 CB        -74.8734   28.1420  -78.4756 C.3       7 UNK        -0.1958 
     37 N         -75.0297   25.9677  -77.3099 N.am      7 UNK        -0.4454 
     38 C         -74.6576   24.9538  -78.1070 C.2       7 UNK         0.5089 
     39 O         -73.8270   25.0612  -79.0104 O.2       7 UNK        -0.5125 
     40 CA        -75.3016   23.5779  -77.8211 C.3       6 UNK         0.0408 
     41 CB        -74.3611   22.4084  -78.1787 C.3       6 UNK        -0.1791 
     42 N         -75.8030   23.4263  -76.4462 N.am      6 UNK        -0.4762 
     43 C         -75.1117   23.5633  -75.2989 C.2       6 UNK         0.5007 
     44 O         -73.9024   23.7965  -75.2711 O.2       6 UNK        -0.5032 
     45 CA        -75.8969   23.4900  -73.9684 C.3       5 UNK         0.0783 
     46 C46       -75.5221   24.6723  -73.0350 C.3       11 UNK        -0.0857 
     47 S47       -76.0791   24.4175  -71.3148 S.3       11 UNK        -0.2512 
     48 C48       -77.7444   25.1718  -71.3020 C.3       11 UNK         0.0225 
     49 N         -77.3365   23.4891  -74.2346 N.am      5 UNK        -0.4615 
     50 C         -78.1751   22.4574  -74.0893 C.2       4 UNK         0.5053 
     51 O         -77.8388   21.3566  -73.6536 O.2       4 UNK        -0.5105 
     52 CA        -79.6380   22.6853  -74.5239 C.3       4 UNK         0.0263 
     53 CB        -80.5535   22.8647  -73.3019 C.3       4 UNK        -0.1981 
     54 N         -79.8031   23.8302  -75.4290 N.am      4 UNK        -0.4224 
     55 C         -79.3575   23.8542  -76.6955 C.2       3 UNK         0.4895 
     56 O         -78.8117   22.8945  -77.2397 O.2       3 UNK        -0.5091 
     57 CA        -79.4700   25.1775  -77.4728 C.3       3 UNK         0.0250 
     58 CB        -80.7620   25.2034  -78.3037 C.3       3 UNK        -0.1996 
     59 N         -79.4107   26.3747  -76.6310 N.am      3 UNK        -0.4254 
     60 C         -78.3878   26.7202  -75.8352 C.2       2 UNK         0.5004 
     61 O         -77.3565   26.0588  -75.7202 O.2       2 UNK        -0.5226 
     62 CA        -78.5611   27.9955  -74.9947 C.3       2 UNK         0.0269 
     63 CB        -78.0068   29.2065  -75.7609 C.3       2 UNK        -0.1926 
     64 N         -79.9483   28.2722  -74.6040 N.am      2 UNK        -0.4687 
     65 C         -80.7423   27.4384  -73.9160 C.2       1 UNK         0.5165 
     66 O         -80.3980   26.3102  -73.5516 O.2       1 UNK        -0.5079 
     67 H67       -85.3907   24.9056  -74.2329 H         1 UNK         0.0900 
     68 H68       -83.9705   23.8766  -74.0302 H         1 UNK         0.0900 
     69 H69       -84.5422   24.8648  -72.6850 H         1 UNK         0.0900 
     70 H70       -83.3474   26.7439  -72.3750 H         1 UNK         0.2959 
     71 H71       -82.5092   28.4395  -74.5379 H         1 UNK         0.1079 
     72 H72       -83.1360   29.5682  -72.5465 H         1 UNK         0.0837 
     73 H73       -81.4275   29.8055  -72.6963 H         1 UNK         0.0837 
     74 H74       -80.5071   29.2364  -69.1208 H         1 UNK         0.0685 
     75 H75       -80.5642   30.3147  -70.4904 H         1 UNK         0.0685 
     76 H76       -79.8617   26.6109  -70.5474 H         1 UNK         0.1434 
     77 H77       -75.7745   27.1345  -71.7378 H         1 UNK         0.1329 
     78 H78       -78.2082   30.5501  -70.9173 H         1 UNK         0.1335 
     79 H79       -75.7954   30.7956  -71.1876 H         1 UNK         0.0680 
     80 H80       -74.7826   29.3718  -71.2241 H         1 UNK         0.0680 
     81 H81       -73.4052   31.1327  -72.7472 H         1 UNK         0.1032 
     82 H82       -73.1669   29.4708  -73.1967 H         1 UNK         0.1032 
     83 H83       -73.8309   30.3699  -75.6625 H         1 UNK         0.0461 
     84 H84       -74.4381   33.9897  -74.9110 H         1 UNK         0.3453 
     85 H85       -75.0599   32.5055  -74.2259 H         1 UNK         0.3453 
     86 H86       -71.8469   29.6216  -76.0318 H         1 UNK         0.2984 
     87 H87       -69.0378   30.2066  -75.8197 H         1 UNK         0.0554 
     88 H88       -68.0597   30.4289  -73.5701 H         1 UNK         0.0847 
     89 H89       -67.5790   28.8871  -74.2568 H         1 UNK         0.0847 
     90 H90       -68.8431   28.9531  -73.0293 H         1 UNK         0.0847 
     91 H91       -69.7153   28.2553  -76.5949 H         1 UNK         0.3141 
     92 H92       -70.4135   26.2307  -76.8490 H         1 UNK         0.0743 
     93 H93       -71.3515   24.6885  -74.3722 H         1 UNK         0.0784 
     94 H94       -71.0301   24.0086  -75.9651 H         1 UNK         0.0784 
     95 H95       -69.7137   24.6797  -75.0133 H         1 UNK         0.0784 
     96 H96       -73.0203   25.5804  -75.9709 H         1 UNK         0.3213 
     97 H97       -74.9247   27.7852  -76.3651 H         1 UNK         0.0855 
     98 H98       -74.4060   27.7605  -79.3838 H         1 UNK         0.0814 
     99 H99       -74.5758   29.1859  -78.3691 H         1 UNK         0.0814 
    100 H100      -75.9535   28.1286  -78.6211 H         1 UNK         0.0814 
    101 H101      -75.7730   25.7832  -76.6378 H         1 UNK         0.3105 
    102 H102      -76.1758   23.5130  -78.4704 H         1 UNK         0.0547 
    103 H103      -74.8333   21.4457  -77.9840 H         1 UNK         0.0837 
    104 H104      -73.4322   22.4486  -77.6089 H         1 UNK         0.0837 
    105 H105      -74.0944   22.4274  -79.2360 H         1 UNK         0.0837 
    106 H106      -76.7955   23.2363  -76.3754 H         1 UNK         0.3020 
    107 H107      -75.5974   22.5549  -73.4899 H         1 UNK         0.1245 
    108 H108      -75.9195   25.6099  -73.4266 H         1 UNK         0.0781 
    109 H109      -74.4397   24.8047  -72.9831 H         1 UNK         0.0781 
    110 H110      -78.2925   24.7213  -70.4732 H         1 UNK         0.0836 
    111 H111      -78.2827   24.8913  -72.2050 H         1 UNK         0.0836 
    112 H112      -77.6913   24.3547  -74.6261 H         1 UNK         0.3022 
    113 H113      -79.9585   21.7866  -75.0552 H         1 UNK         0.0747 
    114 H114      -81.5991   22.9412  -73.5995 H         1 UNK         0.0793 
    115 H115      -80.4717   22.0139  -72.6241 H         1 UNK         0.0793 
    116 H116      -80.3037   23.7594  -72.7322 H         1 UNK         0.0793 
    117 H117      -80.2019   24.6732  -75.0297 H         1 UNK         0.3047 
    118 H118      -78.6208   25.2216  -78.1582 H         1 UNK         0.0822 
    119 H119      -80.8098   26.0890  -78.9377 H         1 UNK         0.0807 
    120 H120      -81.6496   25.1954  -77.6693 H         1 UNK         0.0807 
    121 H121      -80.8224   24.3340  -78.9601 H         1 UNK         0.0807 
    122 H122      -80.2243   26.9727  -76.6388 H         1 UNK         0.2946 
    123 H123      -77.9797   27.8632  -74.0794 H         1 UNK         0.1144 
    124 H124      -78.0444   30.1108  -75.1533 H         1 UNK         0.0793 
    125 H125      -78.5625   29.3952  -76.6802 H         1 UNK         0.0793 
    126 H126      -76.9637   29.0506  -76.0376 H         1 UNK         0.0793 
    127 H127      -80.3085   29.1785  -74.8661 H         1 UNK         0.2896 
@<TRIPOS>BOND
     1    1    2 1    
     2    1   67 1    
     3    1   68 1    
     4    1   69 1    
     5    2    3 2    
     6    2    4 am   BACKBONE|DICT|INTERRES
     7    4    5 1    
     8    4   70 1    
     9    5    6 1    
    10    5   65 1    
    11    5   71 1    
    12    6    7 1    
    13    6   72 1    
    14    6   73 1    
    15    7    8 1    
    16    8    9 1    
    17    8   74 1    
    18    8   75 1    
    19    9   10 ar   
    20    9   14 ar   
    21   10   11 ar   
    22   10   76 1    
    23   11   12 ar   
    24   11   48 1    
    25   12   13 ar   
    26   12   77 1    
    27   13   14 ar   
    28   13   15 1    
    29   14   78 1    
    30   15   16 1    
    31   15   79 1    
    32   15   80 1    
    33   16   17 1    
    34   17   18 1    
    35   17   81 1    
    36   17   82 1    
    37   18   19 1    
    38   18   22 1    
    39   18   83 1    
    40   19   20 am   BACKBONE|DICT|INTERRES
    41   19   21 2    
    42   20   84 1    
    43   20   85 1    
    44   22   23 am   BACKBONE|DICT|INTERRES
    45   22   86 1    
    46   23   24 2    
    47   23   25 1    
    48   25   26 1    
    49   25   27 1    
    50   25   87 1    
    51   26   88 1    
    52   26   89 1    
    53   26   90 1    
    54   27   28 am   BACKBONE|DICT|INTERRES
    55   27   91 1    
    56   28   29 2    
    57   28   30 1    
    58   30   31 1    
    59   30   32 1    
    60   30   92 1    
    61   31   93 1    
    62   31   94 1    
    63   31   95 1    
    64   32   33 am   BACKBONE|DICT|INTERRES
    65   32   96 1    
    66   33   34 2    
    67   33   35 1    
    68   35   36 1    
    69   35   37 1    
    70   35   97 1    
    71   36   98 1    
    72   36   99 1    
    73   36  100 1    
    74   37   38 am   BACKBONE|DICT|INTERRES
    75   37  101 1    
    76   38   39 2    
    77   38   40 1    
    78   40   41 1    
    79   40   42 1    
    80   40  102 1    
    81   41  103 1    
    82   41  104 1    
    83   41  105 1    
    84   42   43 am   BACKBONE|DICT|INTERRES
    85   42  106 1    
    86   43   44 2    
    87   43   45 1    
    88   45   46 1    
    89   45   49 1    
    90   45  107 1    
    91   46   47 1    
    92   46  108 1    
    93   46  109 1    
    94   47   48 1    
    95   48  110 1    
    96   48  111 1    
    97   49   50 am   BACKBONE|DICT|INTERRES
    98   49  112 1    
    99   50   51 2    
   100   50   52 1    
   101   52   53 1    
   102   52   54 1    
   103   52  113 1    
   104   53  114 1    
   105   53  115 1    
   106   53  116 1    
   107   54   55 am   BACKBONE|DICT|INTERRES
   108   54  117 1    
   109   55   56 2    
   110   55   57 1    
   111   57   58 1    
   112   57   59 1    
   113   57  118 1    
   114   58  119 1    
   115   58  120 1    
   116   58  121 1    
   117   59   60 am   BACKBONE|DICT|INTERRES
   118   59  122 1    
   119   60   61 2    
   120   60   62 1    
   121   62   63 1    
   122   62   64 1    
   123   62  123 1    
   124   63  124 1    
   125   63  125 1    
   126   63  126 1    
   127   64   65 am   BACKBONE|DICT|INTERRES
   128   64  127 1    
   129   65   66 2    
@<TRIPOS>SUBSTRUCTURE
     1 UNK         1 GROUP             0       ****    0 ROOT    
