@<TRIPOS>MOLECULE
3R135
127   129    1
SMALL
USER_CHARGES


@<TRIPOS>ATOM
      1 CA        -81.8774   28.1146  -76.0168 C.3       0 UNK        -0.1998 
      2 C         -81.2258   26.9914  -75.2269 C.2       0 UNK         0.4909 
      3 O         -80.5034   26.1782  -75.8028 O.2       0 UNK        -0.5240 
      4 N         -81.4784   26.9315  -73.9113 N.am      1 UNK        -0.4739 
      5 CA        -80.8838   25.9566  -72.9836 C.3       1 UNK         0.0864 
      6 C6        -81.1445   26.3407  -71.5042 C.3       11 UNK        -0.0881 
      7 S7        -79.7402   25.9006  -70.4218 S.3       11 UNK        -0.2682 
      8 C8        -79.3846   27.4768  -69.5837 C.3       11 UNK         0.0289 
      9 C9        -78.3932   28.3427  -70.3510 C.ar      11 UNK        -0.0687 
     10 C10       -78.8184   29.1391  -71.4178 C.ar      11 UNK        -0.0823 
     11 C11       -77.9251   29.9978  -72.0653 C.ar      11 UNK        -0.0830 
     12 C12       -76.5980   30.0690  -71.6263 C.ar      11 UNK        -0.1021 
     13 C13       -76.1515   29.2594  -70.5761 C.ar      11 UNK        -0.0753 
     14 C14       -77.0546   28.3935  -69.9503 C.ar      11 UNK        -0.0933 
     15 C15       -74.7164   29.3500  -70.0678 C.3       11 UNK         0.0166 
     16 S16       -73.4812   28.8404  -71.3093 S.3       11 UNK        -0.2615 
     17 C17       -72.9742   30.4421  -72.0332 C.3       11 UNK        -0.0865 
     18 CA        -73.1169   30.4603  -73.5827 C.3       10 UNK         0.0862 
     19 C         -72.9846   31.8716  -74.2381 C.2       10 UNK         0.5551 
     20 N         -73.3349   32.9466  -73.5435 N.am      10 UNK        -0.7319 
     21 O         -72.6205   32.0030  -75.4055 O.2       10 UNK        -0.5018 
     22 N         -72.2781   29.4414  -74.2390 N.am      10 UNK        -0.4509 
     23 C         -70.9411   29.4472  -74.3348 C.2       10 UNK         0.4899 
     24 O         -70.2208   30.2782  -73.7783 O.2       10 UNK        -0.4839 
     25 CA        -70.2974   28.3763  -75.2409 C.3       9 UNK         0.0222 
     26 CB        -68.8243   28.0836  -74.8805 C.3       9 UNK        -0.1966 
     27 N         -71.0787   27.1392  -75.3643 N.am      9 UNK        -0.4218 
     28 C         -71.3163   26.2154  -74.4174 C.2       9 UNK         0.5020 
     29 O         -70.8609   26.2760  -73.2746 O.2       9 UNK        -0.5274 
     30 CA        -72.2094   25.0172  -74.8069 C.3       8 UNK         0.0270 
     31 CB        -73.1846   24.6438  -73.6741 C.3       8 UNK        -0.1976 
     32 N         -72.9868   25.3036  -76.0136 N.am      8 UNK        -0.4313 
     33 C         -72.7854   24.7790  -77.2298 C.2       8 UNK         0.5041 
     34 O         -71.9568   23.8993  -77.4650 O.2       8 UNK        -0.5577 
     35 CA        -73.6270   25.3440  -78.3934 C.3       7 UNK         0.0284 
     36 CB        -74.7291   24.3540  -78.8024 C.3       7 UNK        -0.1958 
     37 N         -74.2254   26.6535  -78.1053 N.am      7 UNK        -0.4454 
     38 C         -73.5236   27.7922  -77.9926 C.2       7 UNK         0.5089 
     39 O         -72.3063   27.8581  -78.1627 O.2       7 UNK        -0.5125 
     40 CA        -74.2824   29.0524  -77.5337 C.3       6 UNK         0.0408 
     41 CB        -74.7844   29.8492  -78.7467 C.3       6 UNK        -0.1791 
     42 N         -75.4056   28.7846  -76.6285 N.am      6 UNK        -0.4762 
     43 C         -75.3300   28.1133  -75.4705 C.2       6 UNK         0.5007 
     44 O         -74.2835   27.6276  -75.0454 O.2       6 UNK        -0.5032 
     45 CA        -76.6259   27.8773  -74.6682 C.3       5 UNK         0.0783 
     46 C46       -77.8312   28.7746  -75.0659 C.3       11 UNK        -0.0857 
     47 S47       -77.5145   30.5513  -74.7716 S.3       11 UNK        -0.2512 
     48 C48       -78.4103   30.8694  -73.2172 C.3       11 UNK         0.0225 
     49 N         -76.9601   26.4484  -74.6763 N.am      5 UNK        -0.4615 
     50 C         -77.1447   25.6790  -75.7597 C.2       4 UNK         0.5053 
     51 O         -77.0663   26.0941  -76.9179 O.2       4 UNK        -0.5105 
     52 CA        -77.4614   24.1953  -75.5335 C.3       4 UNK         0.0263 
     53 CB        -77.4074   23.7362  -74.0619 C.3       4 UNK        -0.1981 
     54 N         -78.7845   23.9540  -76.0975 N.am      4 UNK        -0.4224 
     55 C         -79.1311   22.9099  -76.8576 C.2       3 UNK         0.4895 
     56 O         -78.3955   21.9471  -77.0852 O.2       3 UNK        -0.5091 
     57 CA        -80.5404   22.9784  -77.4755 C.3       3 UNK         0.0250 
     58 CB        -80.8886   21.7637  -78.3642 C.3       3 UNK        -0.1996 
     59 N         -81.5686   23.2275  -76.4582 N.am      3 UNK        -0.4254 
     60 C         -81.9725   22.4048  -75.4772 C.2       2 UNK         0.5004 
     61 O         -81.5927   21.2405  -75.3400 O.2       2 UNK        -0.5226 
     62 CA        -82.9569   23.0256  -74.4639 C.3       2 UNK         0.0269 
     63 CB        -83.3476   22.0630  -73.3211 C.3       2 UNK        -0.1926 
     64 N         -82.4508   24.3000  -73.9321 N.am      2 UNK        -0.4687 
     65 C         -81.2990   24.4929  -73.2662 C.2       1 UNK         0.5165 
     66 O         -80.5626   23.5790  -72.8971 O.2       1 UNK        -0.5079 
     67 H67       -82.5005   27.7029  -76.8101 H         1 UNK         0.0900 
     68 H68       -82.5015   28.7484  -75.3872 H         1 UNK         0.0900 
     69 H69       -81.1114   28.7399  -76.4747 H         1 UNK         0.0900 
     70 H70       -82.1014   27.6113  -73.4984 H         1 UNK         0.2959 
     71 H71       -79.8079   26.0075  -73.1651 H         1 UNK         0.1079 
     72 H72       -82.0510   25.8696  -71.1180 H         1 UNK         0.0837 
     73 H73       -81.3280   27.4110  -71.4168 H         1 UNK         0.0837 
     74 H74       -78.9863   27.2497  -68.5936 H         1 UNK         0.0685 
     75 H75       -80.3088   28.0288  -69.4067 H         1 UNK         0.0685 
     76 H76       -79.8516   29.1081  -71.7316 H         1 UNK         0.1434 
     77 H77       -75.9138   30.7513  -72.1096 H         1 UNK         0.1329 
     78 H78       -76.7237   27.7803  -69.1231 H         1 UNK         0.1335 
     79 H79       -74.5158   30.3615  -69.7133 H         1 UNK         0.0680 
     80 H80       -74.5872   28.7059  -69.1967 H         1 UNK         0.0680 
     81 H81       -71.9438   30.6481  -71.7399 H         1 UNK         0.1032 
     82 H82       -73.5730   31.2304  -71.5792 H         1 UNK         0.1032 
     83 H83       -74.1426   30.1709  -73.8080 H         1 UNK         0.0461 
     84 H84       -73.2662   33.8498  -73.9859 H         1 UNK         0.3453 
     85 H85       -73.6616   32.8835  -72.5935 H         1 UNK         0.3453 
     86 H86       -72.7987   28.6937  -74.6873 H         1 UNK         0.2984 
     87 H87       -70.2976   28.8123  -76.2410 H         1 UNK         0.0554 
     88 H88       -68.2138   28.9828  -74.9702 H         1 UNK         0.0847 
     89 H89       -68.3929   27.3349  -75.5446 H         1 UNK         0.0847 
     90 H90       -68.7203   27.7254  -73.8560 H         1 UNK         0.0847 
     91 H91       -71.5039   26.9996  -76.2730 H         1 UNK         0.3141 
     92 H92       -71.5445   24.1683  -74.9777 H         1 UNK         0.0743 
     93 H93       -73.8167   23.8025  -73.9577 H         1 UNK         0.0784 
     94 H94       -72.6460   24.3517  -72.7718 H         1 UNK         0.0784 
     95 H95       -73.8341   25.4793  -73.4093 H         1 UNK         0.0784 
     96 H96       -73.6578   26.0605  -75.9086 H         1 UNK         0.3213 
     97 H97       -72.9534   25.4652  -79.2447 H         1 UNK         0.0855 
     98 H98       -75.4324   24.1718  -77.9914 H         1 UNK         0.0814 
     99 H99       -74.3022   23.3902  -79.0833 H         1 UNK         0.0814 
    100 H100      -75.2939   24.7192  -79.6602 H         1 UNK         0.0814 
    101 H101      -75.2203   26.6708  -77.9043 H         1 UNK         0.3105 
    102 H102      -73.5723   29.6776  -76.9887 H         1 UNK         0.0547 
    103 H103      -75.5309   29.2931  -79.3152 H         1 UNK         0.0837 
    104 H104      -73.9639   30.0829  -79.4267 H         1 UNK         0.0837 
    105 H105      -75.2289   30.7970  -78.4426 H         1 UNK         0.0837 
    106 H106      -76.3084   29.1392  -76.9111 H         1 UNK         0.3020 
    107 H107      -76.3686   28.1093  -73.6337 H         1 UNK         0.1245 
    108 H108      -78.7081   28.4808  -74.4880 H         1 UNK         0.0781 
    109 H109      -78.1101   28.6257  -76.1104 H         1 UNK         0.0781 
    110 H110      -79.4781   30.7293  -73.3932 H         1 UNK         0.0836 
    111 H111      -78.2813   31.9179  -72.9456 H         1 UNK         0.0836 
    112 H112      -77.0046   26.0081  -73.7690 H         1 UNK         0.3022 
    113 H113      -76.7137   23.6284  -76.0906 H         1 UNK         0.0747 
    114 H114      -78.0934   24.2945  -73.4265 H         1 UNK         0.0793 
    115 H115      -77.6706   22.6818  -73.9745 H         1 UNK         0.0793 
    116 H116      -76.4037   23.8491  -73.6504 H         1 UNK         0.0793 
    117 H117      -79.4388   24.7331  -76.0124 H         1 UNK         0.3047 
    118 H118      -80.5402   23.8575  -78.1223 H         1 UNK         0.0822 
    119 H119      -81.8872   21.8566  -78.7908 H         1 UNK         0.0807 
    120 H120      -80.8443   20.8244  -77.8127 H         1 UNK         0.0807 
    121 H121      -80.1875   21.6801  -79.1955 H         1 UNK         0.0807 
    122 H122      -81.9143   24.1773  -76.4330 H         1 UNK         0.2946 
    123 H123      -83.8664   23.2538  -75.0226 H         1 UNK         0.1144 
    124 H124      -84.0571   22.5275  -72.6365 H         1 UNK         0.0793 
    125 H125      -82.4818   21.7432  -72.7407 H         1 UNK         0.0793 
    126 H126      -83.8208   21.1633  -73.7164 H         1 UNK         0.0793 
    127 H127      -82.9830   25.1232  -74.1783 H         1 UNK         0.2896 
@<TRIPOS>BOND
     1    1    2 1    
     2    1   67 1    
     3    1   68 1    
     4    1   69 1    
     5    2    3 2    
     6    2    4 am   BACKBONE|DICT|INTERRES
     7    4    5 1    
     8    4   70 1    
     9    5    6 1    
    10    5   65 1    
    11    5   71 1    
    12    6    7 1    
    13    6   72 1    
    14    6   73 1    
    15    7    8 1    
    16    8    9 1    
    17    8   74 1    
    18    8   75 1    
    19    9   10 ar   
    20    9   14 ar   
    21   10   11 ar   
    22   10   76 1    
    23   11   12 ar   
    24   11   48 1    
    25   12   13 ar   
    26   12   77 1    
    27   13   14 ar   
    28   13   15 1    
    29   14   78 1    
    30   15   16 1    
    31   15   79 1    
    32   15   80 1    
    33   16   17 1    
    34   17   18 1    
    35   17   81 1    
    36   17   82 1    
    37   18   19 1    
    38   18   22 1    
    39   18   83 1    
    40   19   20 am   BACKBONE|DICT|INTERRES
    41   19   21 2    
    42   20   84 1    
    43   20   85 1    
    44   22   23 am   BACKBONE|DICT|INTERRES
    45   22   86 1    
    46   23   24 2    
    47   23   25 1    
    48   25   26 1    
    49   25   27 1    
    50   25   87 1    
    51   26   88 1    
    52   26   89 1    
    53   26   90 1    
    54   27   28 am   BACKBONE|DICT|INTERRES
    55   27   91 1    
    56   28   29 2    
    57   28   30 1    
    58   30   31 1    
    59   30   32 1    
    60   30   92 1    
    61   31   93 1    
    62   31   94 1    
    63   31   95 1    
    64   32   33 am   BACKBONE|DICT|INTERRES
    65   32   96 1    
    66   33   34 2    
    67   33   35 1    
    68   35   36 1    
    69   35   37 1    
    70   35   97 1    
    71   36   98 1    
    72   36   99 1    
    73   36  100 1    
    74   37   38 am   BACKBONE|DICT|INTERRES
    75   37  101 1    
    76   38   39 2    
    77   38   40 1    
    78   40   41 1    
    79   40   42 1    
    80   40  102 1    
    81   41  103 1    
    82   41  104 1    
    83   41  105 1    
    84   42   43 am   BACKBONE|DICT|INTERRES
    85   42  106 1    
    86   43   44 2    
    87   43   45 1    
    88   45   46 1    
    89   45   49 1    
    90   45  107 1    
    91   46   47 1    
    92   46  108 1    
    93   46  109 1    
    94   47   48 1    
    95   48  110 1    
    96   48  111 1    
    97   49   50 am   BACKBONE|DICT|INTERRES
    98   49  112 1    
    99   50   51 2    
   100   50   52 1    
   101   52   53 1    
   102   52   54 1    
   103   52  113 1    
   104   53  114 1    
   105   53  115 1    
   106   53  116 1    
   107   54   55 am   BACKBONE|DICT|INTERRES
   108   54  117 1    
   109   55   56 2    
   110   55   57 1    
   111   57   58 1    
   112   57   59 1    
   113   57  118 1    
   114   58  119 1    
   115   58  120 1    
   116   58  121 1    
   117   59   60 am   BACKBONE|DICT|INTERRES
   118   59  122 1    
   119   60   61 2    
   120   60   62 1    
   121   62   63 1    
   122   62   64 1    
   123   62  123 1    
   124   63  124 1    
   125   63  125 1    
   126   63  126 1    
   127   64   65 am   BACKBONE|DICT|INTERRES
   128   64  127 1    
   129   65   66 2    
@<TRIPOS>SUBSTRUCTURE
     1 UNK         1 GROUP             0       ****    0 ROOT    
