@<TRIPOS>MOLECULE
3R135
127   129    1
SMALL
USER_CHARGES


@<TRIPOS>ATOM
      1 CA        -84.8041   26.6379  -70.4369 C.3       0 UNK        -0.1998 
      2 C         -84.6500   26.6410  -71.9502 C.2       0 UNK         0.4909 
      3 O         -85.2956   25.8459  -72.6336 O.2       0 UNK        -0.5240 
      4 N         -83.8011   27.5321  -72.4784 N.am      1 UNK        -0.4739 
      5 CA        -83.4923   27.6628  -73.9088 C.3       1 UNK         0.0864 
      6 C6        -82.8137   29.0193  -74.2405 C.3       11 UNK        -0.0881 
      7 S7        -81.4432   29.4727  -73.1188 S.3       11 UNK        -0.2682 
      8 C8        -79.9948   29.0310  -74.1231 C.3       11 UNK         0.0289 
      9 C9        -78.7152   29.1379  -73.3088 C.ar      11 UNK        -0.0687 
     10 C10       -78.4360   28.1849  -72.3271 C.ar      11 UNK        -0.0823 
     11 C11       -77.2750   28.2790  -71.5557 C.ar      11 UNK        -0.0830 
     12 C12       -76.3850   29.3320  -71.7811 C.ar      11 UNK        -0.1021 
     13 C13       -76.6406   30.2899  -72.7732 C.ar      11 UNK        -0.0753 
     14 C14       -77.8145   30.1843  -73.5278 C.ar      11 UNK        -0.0933 
     15 C15       -75.7056   31.4718  -73.0403 C.3       11 UNK         0.0166 
     16 S16       -73.9997   31.2629  -72.4192 S.3       11 UNK        -0.2615 
     17 C17       -73.0061   31.6477  -73.9010 C.3       11 UNK        -0.0865 
     18 CA        -72.8636   30.4495  -74.8892 C.3       10 UNK         0.0862 
     19 C         -72.0204   30.8257  -76.1457 C.2       10 UNK         0.5551 
     20 N         -72.4057   31.8776  -76.8576 N.am      10 UNK        -0.7319 
     21 O         -71.0299   30.1866  -76.4957 O.2       10 UNK        -0.5018 
     22 N         -72.4405   29.1969  -74.2385 N.am      10 UNK        -0.4509 
     23 C         -71.3084   28.9997  -73.5498 C.2       10 UNK         0.4899 
     24 O         -70.4444   29.8571  -73.3612 O.2       10 UNK        -0.4839 
     25 CA        -71.1117   27.6028  -72.9509 C.3       9 UNK         0.0222 
     26 CB        -71.9550   27.4426  -71.6734 C.3       9 UNK        -0.1966 
     27 N         -71.4694   26.5566  -73.9105 N.am      9 UNK        -0.4218 
     28 C         -70.5867   25.8847  -74.6599 C.2       9 UNK         0.5020 
     29 O         -69.3732   26.0991  -74.6526 O.2       9 UNK        -0.5274 
     30 CA        -71.1346   24.7445  -75.5315 C.3       8 UNK         0.0270 
     31 CB        -71.4681   23.5196  -74.6631 C.3       8 UNK        -0.1976 
     32 N         -72.3025   25.1150  -76.3344 N.am      8 UNK        -0.4313 
     33 C         -72.2433   25.8585  -77.4486 C.2       8 UNK         0.5041 
     34 O         -71.2109   26.3840  -77.8666 O.2       8 UNK        -0.5577 
     35 CA        -73.5394   26.0038  -78.2646 C.3       7 UNK         0.0284 
     36 CB        -73.8626   24.7022  -79.0174 C.3       7 UNK        -0.1958 
     37 N         -74.6801   26.3874  -77.4360 N.am      7 UNK        -0.4454 
     38 C         -74.9000   27.6282  -76.9828 C.2       7 UNK         0.5089 
     39 O         -74.2163   28.6005  -77.2967 O.2       7 UNK        -0.5125 
     40 CA        -76.0743   27.8208  -76.0042 C.3       6 UNK         0.0408 
     41 CB        -77.3650   28.1222  -76.7794 C.3       6 UNK        -0.1791 
     42 N         -76.2841   26.6740  -75.1142 N.am      6 UNK        -0.4762 
     43 C         -75.3689   26.2106  -74.2490 C.2       6 UNK         0.5007 
     44 O         -74.2593   26.7229  -74.0930 O.2       6 UNK        -0.5032 
     45 CA        -75.7074   24.9027  -73.5041 C.3       5 UNK         0.0783 
     46 C46       -76.5758   25.1229  -72.2452 C.3       11 UNK        -0.0857 
     47 S47       -75.7223   26.0522  -70.9286 S.3       11 UNK        -0.2512 
     48 C48       -76.9959   27.2648  -70.4545 C.3       11 UNK         0.0225 
     49 N         -76.3338   23.9353  -74.4066 N.am      5 UNK        -0.4615 
     50 C         -75.7015   23.3057  -75.4046 C.2       4 UNK         0.5053 
     51 O         -74.5059   23.4477  -75.6522 O.2       4 UNK        -0.5105 
     52 CA        -76.5602   22.4055  -76.3073 C.3       4 UNK         0.0263 
     53 CB        -76.7661   21.0264  -75.6614 C.3       4 UNK        -0.1981 
     54 N         -77.8596   23.0065  -76.6181 N.am      4 UNK        -0.4224 
     55 C         -78.0160   24.1275  -77.3370 C.2       3 UNK         0.4895 
     56 O         -77.0857   24.7313  -77.8692 O.2       3 UNK        -0.5091 
     57 CA        -79.4416   24.6923  -77.4540 C.3       3 UNK         0.0250 
     58 CB        -80.1488   24.1134  -78.6894 C.3       3 UNK        -0.1996 
     59 N         -80.2745   24.4746  -76.2661 N.am      3 UNK        -0.4254 
     60 C         -80.0084   24.9461  -75.0399 C.2       2 UNK         0.5004 
     61 O         -78.9889   25.5770  -74.7533 O.2       2 UNK        -0.5226 
     62 CA        -81.0535   24.6546  -73.9483 C.3       2 UNK         0.0269 
     63 CB        -80.3850   24.1401  -72.6615 C.3       2 UNK        -0.1926 
     64 N         -81.8653   25.8308  -73.6263 N.am      2 UNK        -0.4687 
     65 C         -82.6964   26.4634  -74.4692 C.2       1 UNK         0.5165 
     66 O         -82.8743   26.1205  -75.6388 O.2       1 UNK        -0.5079 
     67 H67       -84.1801   27.3948  -69.9619 H         1 UNK         0.0900 
     68 H68       -84.5237   25.6652  -70.0334 H         1 UNK         0.0900 
     69 H69       -85.8409   26.8340  -70.1649 H         1 UNK         0.0900 
     70 H70       -83.2981   28.1680  -71.8743 H         1 UNK         0.2959 
     71 H71       -84.4473   27.6491  -74.4397 H         1 UNK         0.1079 
     72 H72       -82.4764   29.0509  -75.2788 H         1 UNK         0.0837 
     73 H73       -83.5598   29.8114  -74.1610 H         1 UNK         0.0837 
     74 H74       -80.1011   28.0120  -74.4939 H         1 UNK         0.0685 
     75 H75       -79.9536   29.6795  -74.9995 H         1 UNK         0.0685 
     76 H76       -79.1358   27.3782  -72.1589 H         1 UNK         0.1434 
     77 H77       -75.4966   29.3958  -71.1696 H         1 UNK         0.1329 
     78 H78       -78.0318   30.9246  -74.2856 H         1 UNK         0.1335 
     79 H79       -75.6780   31.6633  -74.1138 H         1 UNK         0.0680 
     80 H80       -76.1320   32.3639  -72.5801 H         1 UNK         0.0680 
     81 H81       -72.0219   31.9782  -73.5652 H         1 UNK         0.1032 
     82 H82       -73.4490   32.5137  -74.3948 H         1 UNK         0.1032 
     83 H83       -73.8617   30.2308  -75.2668 H         1 UNK         0.0461 
     84 H84       -73.2297   32.4043  -76.6164 H         1 UNK         0.3453 
     85 H85       -71.8740   32.1307  -77.6757 H         1 UNK         0.3453 
     86 H86       -73.0863   28.4210  -74.3263 H         1 UNK         0.2984 
     87 H87       -70.0622   27.5038  -72.6653 H         1 UNK         0.0554 
     88 H88       -71.8095   26.4616  -71.2213 H         1 UNK         0.0847 
     89 H89       -73.0213   27.5658  -71.8674 H         1 UNK         0.0847 
     90 H90       -71.6756   28.1887  -70.9284 H         1 UNK         0.0847 
     91 H91       -72.4643   26.3719  -74.0229 H         1 UNK         0.3141 
     92 H92       -70.3387   24.4491  -76.2189 H         1 UNK         0.0743 
     93 H93       -72.2797   23.7264  -73.9645 H         1 UNK         0.0784 
     94 H94       -71.7653   22.6688  -75.2765 H         1 UNK         0.0784 
     95 H95       -70.6028   23.2088  -74.0760 H         1 UNK         0.0784 
     96 H96       -73.1834   24.6685  -76.0854 H         1 UNK         0.3213 
     97 H97       -73.3764   26.7860  -79.0096 H         1 UNK         0.0855 
     98 H98       -74.0650   23.8756  -78.3357 H         1 UNK         0.0814 
     99 H99       -73.0300   24.4035  -79.6556 H         1 UNK         0.0814 
    100 H100      -74.7359   24.8240  -79.6586 H         1 UNK         0.0814 
    101 H101      -75.3538   25.6642  -77.2080 H         1 UNK         0.3105 
    102 H102      -75.8481   28.6801  -75.3700 H         1 UNK         0.0547 
    103 H103      -77.2861   29.0748  -77.3044 H         1 UNK         0.0837 
    104 H104      -77.5741   27.3582  -77.5273 H         1 UNK         0.0837 
    105 H105      -78.2256   28.1842  -76.1171 H         1 UNK         0.0837 
    106 H106      -77.1936   26.2201  -75.1465 H         1 UNK         0.3020 
    107 H107      -74.7578   24.4713  -73.1785 H         1 UNK         0.1245 
    108 H108      -76.8603   24.1590  -71.8203 H         1 UNK         0.0781 
    109 H109      -77.5099   25.6128  -72.5142 H         1 UNK         0.0781 
    110 H110      -76.6625   27.7902  -69.5584 H         1 UNK         0.0836 
    111 H111      -77.9086   26.7374  -70.1725 H         1 UNK         0.0836 
    112 H112      -77.3332   23.8249  -74.3194 H         1 UNK         0.3022 
    113 H113      -76.0197   22.2663  -77.2463 H         1 UNK         0.0747 
    114 H114      -77.3058   20.3533  -76.3279 H         1 UNK         0.0793 
    115 H115      -75.8079   20.5560  -75.4357 H         1 UNK         0.0793 
    116 H116      -77.3244   21.0934  -74.7267 H         1 UNK         0.0793 
    117 H117      -78.6799   22.5655  -76.2287 H         1 UNK         0.3047 
    118 H118      -79.3532   25.7714  -77.5905 H         1 UNK         0.0822 
    119 H119      -81.1209   24.5817  -78.8460 H         1 UNK         0.0807 
    120 H120      -80.3036   23.0373  -78.6010 H         1 UNK         0.0807 
    121 H121      -79.5602   24.2851  -79.5919 H         1 UNK         0.0807 
    122 H122      -81.1542   24.0016  -76.4182 H         1 UNK         0.2946 
    123 H123      -81.7251   23.8731  -74.3106 H         1 UNK         0.1144 
    124 H124      -79.7387   23.2859  -72.8678 H         1 UNK         0.0793 
    125 H125      -81.1284   23.8129  -71.9343 H         1 UNK         0.0793 
    126 H126      -79.7725   24.9071  -72.1876 H         1 UNK         0.0793 
    127 H127      -81.7855   26.1947  -72.6885 H         1 UNK         0.2896 
@<TRIPOS>BOND
     1    1    2 1    
     2    1   67 1    
     3    1   68 1    
     4    1   69 1    
     5    2    3 2    
     6    2    4 am   BACKBONE|DICT|INTERRES
     7    4    5 1    
     8    4   70 1    
     9    5    6 1    
    10    5   65 1    
    11    5   71 1    
    12    6    7 1    
    13    6   72 1    
    14    6   73 1    
    15    7    8 1    
    16    8    9 1    
    17    8   74 1    
    18    8   75 1    
    19    9   10 ar   
    20    9   14 ar   
    21   10   11 ar   
    22   10   76 1    
    23   11   12 ar   
    24   11   48 1    
    25   12   13 ar   
    26   12   77 1    
    27   13   14 ar   
    28   13   15 1    
    29   14   78 1    
    30   15   16 1    
    31   15   79 1    
    32   15   80 1    
    33   16   17 1    
    34   17   18 1    
    35   17   81 1    
    36   17   82 1    
    37   18   19 1    
    38   18   22 1    
    39   18   83 1    
    40   19   20 am   BACKBONE|DICT|INTERRES
    41   19   21 2    
    42   20   84 1    
    43   20   85 1    
    44   22   23 am   BACKBONE|DICT|INTERRES
    45   22   86 1    
    46   23   24 2    
    47   23   25 1    
    48   25   26 1    
    49   25   27 1    
    50   25   87 1    
    51   26   88 1    
    52   26   89 1    
    53   26   90 1    
    54   27   28 am   BACKBONE|DICT|INTERRES
    55   27   91 1    
    56   28   29 2    
    57   28   30 1    
    58   30   31 1    
    59   30   32 1    
    60   30   92 1    
    61   31   93 1    
    62   31   94 1    
    63   31   95 1    
    64   32   33 am   BACKBONE|DICT|INTERRES
    65   32   96 1    
    66   33   34 2    
    67   33   35 1    
    68   35   36 1    
    69   35   37 1    
    70   35   97 1    
    71   36   98 1    
    72   36   99 1    
    73   36  100 1    
    74   37   38 am   BACKBONE|DICT|INTERRES
    75   37  101 1    
    76   38   39 2    
    77   38   40 1    
    78   40   41 1    
    79   40   42 1    
    80   40  102 1    
    81   41  103 1    
    82   41  104 1    
    83   41  105 1    
    84   42   43 am   BACKBONE|DICT|INTERRES
    85   42  106 1    
    86   43   44 2    
    87   43   45 1    
    88   45   46 1    
    89   45   49 1    
    90   45  107 1    
    91   46   47 1    
    92   46  108 1    
    93   46  109 1    
    94   47   48 1    
    95   48  110 1    
    96   48  111 1    
    97   49   50 am   BACKBONE|DICT|INTERRES
    98   49  112 1    
    99   50   51 2    
   100   50   52 1    
   101   52   53 1    
   102   52   54 1    
   103   52  113 1    
   104   53  114 1    
   105   53  115 1    
   106   53  116 1    
   107   54   55 am   BACKBONE|DICT|INTERRES
   108   54  117 1    
   109   55   56 2    
   110   55   57 1    
   111   57   58 1    
   112   57   59 1    
   113   57  118 1    
   114   58  119 1    
   115   58  120 1    
   116   58  121 1    
   117   59   60 am   BACKBONE|DICT|INTERRES
   118   59  122 1    
   119   60   61 2    
   120   60   62 1    
   121   62   63 1    
   122   62   64 1    
   123   62  123 1    
   124   63  124 1    
   125   63  125 1    
   126   63  126 1    
   127   64   65 am   BACKBONE|DICT|INTERRES
   128   64  127 1    
   129   65   66 2    
@<TRIPOS>SUBSTRUCTURE
     1 UNK         1 GROUP             0       ****    0 ROOT    
