@<TRIPOS>MOLECULE
3R135
127   129    1
SMALL
USER_CHARGES


@<TRIPOS>ATOM
      1 CA        -81.1738   21.6766  -70.2663 C.3       0 UNK        -0.1998 
      2 C         -81.5401   23.0008  -70.9196 C.2       0 UNK         0.4909 
      3 O         -82.7216   23.3418  -70.9928 O.2       0 UNK        -0.5240 
      4 N         -80.5350   23.7533  -71.3840 N.am      1 UNK        -0.4739 
      5 CA        -80.6988   25.0287  -72.0913 C.3       1 UNK         0.0864 
      6 C6        -79.3610   25.8050  -72.1921 C.3       11 UNK        -0.0881 
      7 S7        -78.6567   26.1936  -70.5542 S.3       11 UNK        -0.2682 
      8 C8        -79.1836   27.9193  -70.3144 C.3       11 UNK         0.0289 
      9 C9        -78.3321   28.8898  -71.1198 C.ar      11 UNK        -0.0687 
     10 C10       -78.7874   29.3823  -72.3470 C.ar      11 UNK        -0.0823 
     11 C11       -78.0073   30.2766  -73.0850 C.ar      11 UNK        -0.0830 
     12 C12       -76.7705   30.6891  -72.5817 C.ar      11 UNK        -0.1021 
     13 C13       -76.3096   30.2128  -71.3515 C.ar      11 UNK        -0.0753 
     14 C14       -77.0930   29.3108  -70.6255 C.ar      11 UNK        -0.0933 
     15 C15       -74.9684   30.6807  -70.8112 C.3       11 UNK         0.0166 
     16 S16       -73.6492   29.5178  -71.2652 S.3       11 UNK        -0.2615 
     17 C17       -72.1935   30.6194  -71.2751 C.3       11 UNK        -0.0865 
     18 CA        -71.9291   31.2298  -72.6765 C.3       10 UNK         0.0862 
     19 C         -70.7185   32.2005  -72.6375 C.2       10 UNK         0.5551 
     20 N         -70.9567   33.4760  -72.3647 N.am      10 UNK        -0.7319 
     21 O         -69.5673   31.8018  -72.8062 O.2       10 UNK        -0.5018 
     22 N         -71.7800   30.1813  -73.6925 N.am      10 UNK        -0.4509 
     23 C         -71.8035   30.3568  -75.0163 C.2       10 UNK         0.4899 
     24 O         -71.9556   31.4534  -75.5559 O.2       10 UNK        -0.4839 
     25 CA        -71.6701   29.1035  -75.9037 C.3       9 UNK         0.0222 
     26 CB        -70.2133   28.8978  -76.3619 C.3       9 UNK        -0.1966 
     27 N         -72.2373   27.8701  -75.3347 N.am      9 UNK        -0.4218 
     28 C         -71.8146   27.1433  -74.2884 C.2       9 UNK         0.5020 
     29 O         -70.8514   27.4474  -73.5837 O.2       9 UNK        -0.5274 
     30 CA        -72.6109   25.8717  -73.9501 C.3       8 UNK         0.0270 
     31 CB        -73.7636   26.1965  -72.9866 C.3       8 UNK        -0.1976 
     32 N         -73.1443   25.1886  -75.1297 N.am      8 UNK        -0.4313 
     33 C         -72.4054   24.5522  -76.0495 C.2       8 UNK         0.5041 
     34 O         -71.1786   24.4548  -76.0001 O.2       8 UNK        -0.5577 
     35 CA        -73.1647   23.9178  -77.2257 C.3       7 UNK         0.0284 
     36 CB        -73.7942   22.5757  -76.8158 C.3       7 UNK        -0.1958 
     37 N         -74.1992   24.8121  -77.7468 N.am      7 UNK        -0.4454 
     38 C         -73.9594   25.8595  -78.5477 C.2       7 UNK         0.5089 
     39 O         -72.8475   26.1427  -78.9939 O.2       7 UNK        -0.5125 
     40 CA        -75.1623   26.7503  -78.9079 C.3       6 UNK         0.0408 
     41 CB        -75.8228   26.2624  -80.2066 C.3       6 UNK        -0.1791 
     42 N         -76.1722   26.8226  -77.8484 N.am      6 UNK        -0.4762 
     43 C         -75.9776   27.3962  -76.6499 C.2       6 UNK         0.5007 
     44 O         -74.9139   27.9132  -76.3091 O.2       6 UNK        -0.5032 
     45 CA        -77.1465   27.3117  -75.6403 C.3       5 UNK         0.0783 
     46 C46       -78.2120   28.4087  -75.8993 C.3       11 UNK        -0.0857 
     47 S47       -77.5834   30.1233  -75.8206 S.3       11 UNK        -0.2512 
     48 C48       -78.5056   30.8194  -74.4152 C.3       11 UNK         0.0225 
     49 N         -77.7581   25.9736  -75.6445 N.am      5 UNK        -0.4615 
     50 C         -77.0950   24.8258  -75.4220 C.2       4 UNK         0.5053 
     51 O         -75.9214   24.7907  -75.0580 O.2       4 UNK        -0.5105 
     52 CA        -77.8048   23.4893  -75.7091 C.3       4 UNK         0.0263 
     53 CB        -77.9574   22.6452  -74.4336 C.3       4 UNK        -0.1981 
     54 N         -79.0983   23.6368  -76.3815 N.am      4 UNK        -0.4224 
     55 C         -79.2361   23.9880  -77.6707 C.2       3 UNK         0.4895 
     56 O         -78.2815   24.1903  -78.4224 O.2       3 UNK        -0.5091 
     57 CA        -80.6647   24.1960  -78.2099 C.3       3 UNK         0.0250 
     58 CB        -81.1552   22.9285  -78.9274 C.3       3 UNK        -0.1996 
     59 N         -81.6447   24.5844  -77.1900 N.am      3 UNK        -0.4254 
     60 C         -81.5709   25.6851  -76.4286 C.2       2 UNK         0.5004 
     61 O         -80.6632   26.5121  -76.5172 O.2       2 UNK        -0.5226 
     62 CA        -82.6393   25.8728  -75.3343 C.3       2 UNK         0.0269 
     63 CB        -83.8313   24.8923  -75.4319 C.3       2 UNK        -0.1926 
     64 N         -82.0349   25.8169  -73.9955 N.am      2 UNK        -0.4687 
     65 C         -81.3004   24.8105  -73.4955 C.2       1 UNK         0.5165 
     66 O         -81.0574   23.7688  -74.1126 O.2       1 UNK        -0.5079 
     67 H67       -81.6413   20.8520  -70.8036 H         1 UNK         0.0900 
     68 H68       -81.5263   21.6561  -69.2354 H         1 UNK         0.0900 
     69 H69       -80.0968   21.5094  -70.2598 H         1 UNK         0.0900 
     70 H70       -79.5847   23.4259  -71.2922 H         1 UNK         0.2959 
     71 H71       -81.4057   25.6332  -71.5183 H         1 UNK         0.1079 
     72 H72       -78.6170   25.2264  -72.7398 H         1 UNK         0.0837 
     73 H73       -79.4884   26.7256  -72.7613 H         1 UNK         0.0837 
     74 H74       -80.2392   28.0213  -70.5710 H         1 UNK         0.0685 
     75 H75       -79.1054   28.1639  -69.2540 H         1 UNK         0.0685 
     76 H76       -79.7512   29.0729  -72.7268 H         1 UNK         0.1434 
     77 H77       -76.1653   31.3812  -73.1517 H         1 UNK         0.1329 
     78 H78       -76.7367   28.9336  -69.6765 H         1 UNK         0.1335 
     79 H79       -74.7401   31.6729  -71.2038 H         1 UNK         0.0680 
     80 H80       -75.0076   30.7792  -69.7253 H         1 UNK         0.0680 
     81 H81       -71.3289   30.0400  -70.9455 H         1 UNK         0.1032 
     82 H82       -72.3315   31.4036  -70.5280 H         1 UNK         0.1032 
     83 H83       -72.8097   31.8121  -72.9562 H         1 UNK         0.0461 
     84 H84       -70.1822   34.1198  -72.3184 H         1 UNK         0.3453 
     85 H85       -71.8955   33.8124  -72.2168 H         1 UNK         0.3453 
     86 H86       -71.5781   29.2484  -73.3500 H         1 UNK         0.2984 
     87 H87       -72.2659   29.2983  -76.7968 H         1 UNK         0.0554 
     88 H88       -70.1278   28.0486  -77.0401 H         1 UNK         0.0847 
     89 H89       -69.5408   28.7263  -75.5210 H         1 UNK         0.0847 
     90 H90       -69.8464   29.7768  -76.8934 H         1 UNK         0.0847 
     91 H91       -73.1205   27.5944  -75.7591 H         1 UNK         0.3141 
     92 H92       -71.9315   25.1810  -73.4461 H         1 UNK         0.0743 
     93 H93       -74.4639   26.9125  -73.4193 H         1 UNK         0.0784 
     94 H94       -74.3243   25.3008  -72.7186 H         1 UNK         0.0784 
     95 H95       -73.3841   26.6281  -72.0600 H         1 UNK         0.0784 
     96 H96       -74.1598   25.1544  -75.2109 H         1 UNK         0.3213 
     97 H97       -72.4430   23.7201  -78.0218 H         1 UNK         0.0855 
     98 H98       -74.5163   22.6904  -76.0071 H         1 UNK         0.0814 
     99 H99       -73.0289   21.8801  -76.4689 H         1 UNK         0.0814 
    100 H100      -74.3032   22.1029  -77.6559 H         1 UNK         0.0814 
    101 H101      -75.1408   24.6750  -77.4100 H         1 UNK         0.3105 
    102 H102      -74.7842   27.7608  -79.0773 H         1 UNK         0.0547 
    103 H103      -75.0987   26.2227  -81.0215 H         1 UNK         0.0837 
    104 H104      -76.2435   25.2621  -80.0954 H         1 UNK         0.0837 
    105 H105      -76.6248   26.9306  -80.5203 H         1 UNK         0.0837 
    106 H106      -77.0606   26.3763  -78.0355 H         1 UNK         0.3020 
    107 H107      -76.7262   27.4736  -74.6448 H         1 UNK         0.1245 
    108 H108      -79.0285   28.2979  -75.1846 H         1 UNK         0.0781 
    109 H109      -78.6634   28.2708  -76.8835 H         1 UNK         0.0781 
    110 H110      -79.5722   30.6298  -74.5465 H         1 UNK         0.0836 
    111 H111      -78.3889   31.9041  -74.4231 H         1 UNK         0.0836 
    112 H112      -78.7248   25.9321  -75.9492 H         1 UNK         0.3022 
    113 H113      -77.1478   22.9335  -76.3816 H         1 UNK         0.0747 
    114 H114      -78.3944   21.6713  -74.6540 H         1 UNK         0.0793 
    115 H115      -76.9875   22.4651  -73.9676 H         1 UNK         0.0793 
    116 H116      -78.5858   23.1305  -73.6905 H         1 UNK         0.0793 
    117 H117      -79.9261   23.5316  -75.8018 H         1 UNK         0.3047 
    118 H118      -80.6163   25.0062  -78.9405 H         1 UNK         0.0822 
    119 H119      -82.1233   23.0894  -79.4023 H         1 UNK         0.0807 
    120 H120      -81.2524   22.0872  -78.2400 H         1 UNK         0.0807 
    121 H121      -80.4582   22.6296  -79.7119 H         1 UNK         0.0807 
    122 H122      -82.4046   23.9408  -77.0225 H         1 UNK         0.2946 
    123 H123      -83.0290   26.8837  -75.4669 H         1 UNK         0.1144 
    124 H124      -84.3199   24.9589  -76.4051 H         1 UNK         0.0793 
    125 H125      -84.5876   25.1271  -74.6827 H         1 UNK         0.0793 
    126 H126      -83.5330   23.8548  -75.2769 H         1 UNK         0.0793 
    127 H127      -82.1572   26.6484  -73.4342 H         1 UNK         0.2896 
@<TRIPOS>BOND
     1    1    2 1    
     2    1   67 1    
     3    1   68 1    
     4    1   69 1    
     5    2    3 2    
     6    2    4 am   BACKBONE|DICT|INTERRES
     7    4    5 1    
     8    4   70 1    
     9    5    6 1    
    10    5   65 1    
    11    5   71 1    
    12    6    7 1    
    13    6   72 1    
    14    6   73 1    
    15    7    8 1    
    16    8    9 1    
    17    8   74 1    
    18    8   75 1    
    19    9   10 ar   
    20    9   14 ar   
    21   10   11 ar   
    22   10   76 1    
    23   11   12 ar   
    24   11   48 1    
    25   12   13 ar   
    26   12   77 1    
    27   13   14 ar   
    28   13   15 1    
    29   14   78 1    
    30   15   16 1    
    31   15   79 1    
    32   15   80 1    
    33   16   17 1    
    34   17   18 1    
    35   17   81 1    
    36   17   82 1    
    37   18   19 1    
    38   18   22 1    
    39   18   83 1    
    40   19   20 am   BACKBONE|DICT|INTERRES
    41   19   21 2    
    42   20   84 1    
    43   20   85 1    
    44   22   23 am   BACKBONE|DICT|INTERRES
    45   22   86 1    
    46   23   24 2    
    47   23   25 1    
    48   25   26 1    
    49   25   27 1    
    50   25   87 1    
    51   26   88 1    
    52   26   89 1    
    53   26   90 1    
    54   27   28 am   BACKBONE|DICT|INTERRES
    55   27   91 1    
    56   28   29 2    
    57   28   30 1    
    58   30   31 1    
    59   30   32 1    
    60   30   92 1    
    61   31   93 1    
    62   31   94 1    
    63   31   95 1    
    64   32   33 am   BACKBONE|DICT|INTERRES
    65   32   96 1    
    66   33   34 2    
    67   33   35 1    
    68   35   36 1    
    69   35   37 1    
    70   35   97 1    
    71   36   98 1    
    72   36   99 1    
    73   36  100 1    
    74   37   38 am   BACKBONE|DICT|INTERRES
    75   37  101 1    
    76   38   39 2    
    77   38   40 1    
    78   40   41 1    
    79   40   42 1    
    80   40  102 1    
    81   41  103 1    
    82   41  104 1    
    83   41  105 1    
    84   42   43 am   BACKBONE|DICT|INTERRES
    85   42  106 1    
    86   43   44 2    
    87   43   45 1    
    88   45   46 1    
    89   45   49 1    
    90   45  107 1    
    91   46   47 1    
    92   46  108 1    
    93   46  109 1    
    94   47   48 1    
    95   48  110 1    
    96   48  111 1    
    97   49   50 am   BACKBONE|DICT|INTERRES
    98   49  112 1    
    99   50   51 2    
   100   50   52 1    
   101   52   53 1    
   102   52   54 1    
   103   52  113 1    
   104   53  114 1    
   105   53  115 1    
   106   53  116 1    
   107   54   55 am   BACKBONE|DICT|INTERRES
   108   54  117 1    
   109   55   56 2    
   110   55   57 1    
   111   57   58 1    
   112   57   59 1    
   113   57  118 1    
   114   58  119 1    
   115   58  120 1    
   116   58  121 1    
   117   59   60 am   BACKBONE|DICT|INTERRES
   118   59  122 1    
   119   60   61 2    
   120   60   62 1    
   121   62   63 1    
   122   62   64 1    
   123   62  123 1    
   124   63  124 1    
   125   63  125 1    
   126   63  126 1    
   127   64   65 am   BACKBONE|DICT|INTERRES
   128   64  127 1    
   129   65   66 2    
@<TRIPOS>SUBSTRUCTURE
     1 UNK         1 GROUP             0       ****    0 ROOT    
