@<TRIPOS>MOLECULE
3R135
127   129    1
SMALL
USER_CHARGES


@<TRIPOS>ATOM
      1 CA        -82.0995   28.3231  -70.2348 C.3       0 UNK        -0.1998 
      2 C         -81.2489   27.9583  -71.4417 C.2       0 UNK         0.4909 
      3 O         -81.3937   28.5683  -72.5021 O.2       0 UNK        -0.5240 
      4 N         -80.3680   26.9608  -71.2956 N.am      1 UNK        -0.4739 
      5 CA        -79.4427   26.4789  -72.3292 C.3       1 UNK         0.0864 
      6 C6        -78.1979   25.7810  -71.7159 C.3       11 UNK        -0.0881 
      7 S7        -77.3630   26.7481  -70.4125 S.3       11 UNK        -0.2682 
      8 C8        -75.8903   27.3742  -71.2750 C.3       11 UNK         0.0289 
      9 C9        -76.2001   28.6179  -72.0936 C.ar      11 UNK        -0.0687 
     10 C10       -76.2417   28.5623  -73.4884 C.ar      11 UNK        -0.0823 
     11 C11       -76.4740   29.7199  -74.2408 C.ar      11 UNK        -0.0830 
     12 C12       -76.6629   30.9383  -73.5802 C.ar      11 UNK        -0.1021 
     13 C13       -76.6170   31.0097  -72.1851 C.ar      11 UNK        -0.0753 
     14 C14       -76.4021   29.8398  -71.4489 C.ar      11 UNK        -0.0933 
     15 C15       -76.8166   32.3498  -71.4853 C.3       11 UNK         0.0166 
     16 S16       -75.6418   32.6384  -70.1194 S.3       11 UNK        -0.2615 
     17 C17       -74.0664   32.9999  -70.9822 C.3       11 UNK        -0.0865 
     18 CA        -73.0394   31.8319  -71.0893 C.3       10 UNK         0.0862 
     19 C         -72.8446   31.0359  -69.7623 C.2       10 UNK         0.5551 
     20 N         -73.1199   29.7380  -69.7213 N.am      10 UNK        -0.7319 
     21 O         -72.4197   31.6075  -68.7611 O.2       10 UNK        -0.5018 
     22 N         -73.2599   31.0275  -72.3038 N.am      10 UNK        -0.4509 
     23 C         -72.3468   30.2274  -72.8701 C.2       10 UNK         0.4899 
     24 O         -71.2263   30.0087  -72.4056 O.2       10 UNK        -0.4839 
     25 CA        -72.7312   29.5934  -74.2080 C.3       9 UNK         0.0222 
     26 CB        -72.1109   30.3649  -75.3866 C.3       9 UNK        -0.1966 
     27 N         -72.3014   28.1973  -74.2270 N.am      9 UNK        -0.4218 
     28 C         -72.8808   27.2408  -74.9603 C.2       9 UNK         0.5020 
     29 O         -73.8162   27.4469  -75.7335 O.2       9 UNK        -0.5274 
     30 CA        -72.3661   25.8082  -74.7672 C.3       8 UNK         0.0270 
     31 CB        -72.9610   25.1975  -73.4861 C.3       8 UNK        -0.1976 
     32 N         -72.7644   24.9775  -75.9039 N.am      8 UNK        -0.4313 
     33 C         -72.0658   24.8334  -77.0354 C.2       8 UNK         0.5041 
     34 O         -70.9529   25.3288  -77.2208 O.2       8 UNK        -0.5577 
     35 CA        -72.7054   23.9870  -78.1456 C.3       7 UNK         0.0284 
     36 CB        -72.7725   22.5045  -77.7375 C.3       7 UNK        -0.1958 
     37 N         -74.0512   24.4572  -78.4886 N.am      7 UNK        -0.4454 
     38 C         -74.4574   24.7764  -79.7278 C.2       7 UNK         0.5089 
     39 O         -73.7139   24.7679  -80.7099 O.2       7 UNK        -0.5125 
     40 CA        -75.9445   25.1354  -79.9411 C.3       6 UNK         0.0408 
     41 CB        -76.6705   23.9895  -80.6646 C.3       6 UNK        -0.1791 
     42 N         -76.6593   25.4278  -78.6993 N.am      6 UNK        -0.4762 
     43 C         -76.5481   26.5673  -78.0012 C.2       6 UNK         0.5007 
     44 O         -75.9446   27.5523  -78.4254 O.2       6 UNK        -0.5032 
     45 CA        -77.1632   26.5901  -76.5799 C.3       5 UNK         0.0783 
     46 C46       -78.3587   27.5742  -76.4402 C.3       11 UNK        -0.0857 
     47 S47       -78.0666   29.3811  -76.5138 S.3       11 UNK        -0.2512 
     48 C48       -76.4366   29.6899  -75.7645 C.3       11 UNK         0.0225 
     49 N         -77.5427   25.2515  -76.0978 N.am      5 UNK        -0.4615 
     50 C         -76.6847   24.2628  -75.7986 C.2       4 UNK         0.5053 
     51 O         -75.4645   24.3846  -75.8860 O.2       4 UNK        -0.5105 
     52 CA        -77.2546   22.8941  -75.3917 C.3       4 UNK         0.0263 
     53 CB        -76.9820   22.6003  -73.9081 C.3       4 UNK        -0.1981 
     54 N         -78.6852   22.7588  -75.6762 N.am      4 UNK        -0.4224 
     55 C         -79.1809   22.4967  -76.8956 C.2       3 UNK         0.4895 
     56 O         -78.4766   22.3165  -77.8895 O.2       3 UNK        -0.5091 
     57 CA        -80.7133   22.4581  -77.0503 C.3       3 UNK         0.0250 
     58 CB        -81.2307   21.0183  -76.9038 C.3       3 UNK        -0.1996 
     59 N         -81.4326   23.3292  -76.1151 N.am      3 UNK        -0.4254 
     60 C         -81.3076   24.6625  -76.0605 C.2       2 UNK         0.5004 
     61 O         -80.5690   25.3018  -76.8086 O.2       2 UNK        -0.5226 
     62 CA        -82.0880   25.4158  -74.9650 C.3       2 UNK         0.0269 
     63 CB        -83.0953   24.5374  -74.1882 C.3       2 UNK        -0.1926 
     64 N         -81.1902   26.0984  -74.0232 N.am      2 UNK        -0.4687 
     65 C         -80.1801   25.5550  -73.3278 C.2       1 UNK         0.5165 
     66 O         -79.8535   24.3703  -73.4282 O.2       1 UNK        -0.5079 
     67 H67       -81.8623   27.7069  -69.3677 H         1 UNK         0.0900 
     68 H68       -81.9372   29.3660  -69.9641 H         1 UNK         0.0900 
     69 H69       -83.1560   28.1910  -70.4668 H         1 UNK         0.0900 
     70 H70       -80.2965   26.4903  -70.4046 H         1 UNK         0.2959 
     71 H71       -79.0838   27.3418  -72.8956 H         1 UNK         0.1079 
     72 H72       -78.4780   24.8268  -71.2651 H         1 UNK         0.0837 
     73 H73       -77.4796   25.5428  -72.5019 H         1 UNK         0.0837 
     74 H74       -75.4542   26.5892  -71.8943 H         1 UNK         0.0685 
     75 H75       -75.1348   27.6204  -70.5280 H         1 UNK         0.0685 
     76 H76       -76.0533   27.6198  -73.9758 H         1 UNK         0.1434 
     77 H77       -76.8330   31.8372  -74.1577 H         1 UNK         0.1329 
     78 H78       -76.3720   29.8802  -70.3686 H         1 UNK         0.1335 
     79 H79       -76.7481   33.1772  -72.1933 H         1 UNK         0.0680 
     80 H80       -77.8291   32.3746  -71.0805 H         1 UNK         0.0680 
     81 H81       -73.5997   33.8157  -70.4273 H         1 UNK         0.1032 
     82 H82       -74.2747   33.4198  -71.9674 H         1 UNK         0.1032 
     83 H83       -72.0723   32.3124  -71.2524 H         1 UNK         0.0461 
     84 H84       -72.9833   29.2289  -68.8628 H         1 UNK         0.3453 
     85 H85       -73.4528   29.2697  -70.5468 H         1 UNK         0.3453 
     86 H86       -74.1773   31.1028  -72.7208 H         1 UNK         0.2984 
     87 H87       -73.8137   29.6338  -74.3038 H         1 UNK         0.0554 
     88 H88       -72.4120   31.4131  -75.3698 H         1 UNK         0.0847 
     89 H89       -72.4317   29.9523  -76.3434 H         1 UNK         0.0847 
     90 H90       -71.0210   30.3358  -75.3573 H         1 UNK         0.0847 
     91 H91       -71.5538   27.9679  -73.5841 H         1 UNK         0.3141 
     92 H92       -71.2773   25.8280  -74.6841 H         1 UNK         0.0743 
     93 H93       -72.6772   25.7727  -72.6039 H         1 UNK         0.0784 
     94 H94       -74.0511   25.1698  -73.5221 H         1 UNK         0.0784 
     95 H95       -72.6074   24.1776  -73.3340 H         1 UNK         0.0784 
     96 H96       -73.7215   24.6284  -75.8704 H         1 UNK         0.3213 
     97 H97       -72.0459   24.0611  -79.0130 H         1 UNK         0.0855 
     98 H98       -73.4448   22.3440  -76.8936 H         1 UNK         0.0814 
     99 H99       -71.7884   22.1333  -77.4482 H         1 UNK         0.0814 
    100 H100      -73.1219   21.8848  -78.5635 H         1 UNK         0.0814 
    101 H101      -74.7105   24.5352  -77.7216 H         1 UNK         0.3105 
    102 H102      -75.9810   26.0187  -80.5821 H         1 UNK         0.0547 
    103 H103      -77.7073   24.2485  -80.8799 H         1 UNK         0.0837 
    104 H104      -76.6702   23.0733  -80.0722 H         1 UNK         0.0837 
    105 H105      -76.1909   23.7615  -81.6175 H         1 UNK         0.0837 
    106 H106      -77.1897   24.6682  -78.2942 H         1 UNK         0.3020 
    107 H107      -76.3541   26.9125  -75.9334 H         1 UNK         0.1245 
    108 H108      -78.8563   27.3988  -75.4859 H         1 UNK         0.0781 
    109 H109      -79.1068   27.3496  -77.2013 H         1 UNK         0.0781 
    110 H110      -76.0912   30.6593  -76.1269 H         1 UNK         0.0836 
    111 H111      -75.6966   28.9877  -76.1345 H         1 UNK         0.0836 
    112 H112      -78.5375   25.0594  -76.0720 H         1 UNK         0.3022 
    113 H113      -76.7145   22.1446  -75.9746 H         1 UNK         0.0747 
    114 H114      -77.3004   21.5926  -73.6410 H         1 UNK         0.0793 
    115 H115      -75.9163   22.6715  -73.6849 H         1 UNK         0.0793 
    116 H116      -77.4977   23.2968  -73.2502 H         1 UNK         0.0793 
    117 H117      -79.3212   22.9667  -74.9129 H         1 UNK         0.3047 
    118 H118      -80.9431   22.8024  -78.0610 H         1 UNK         0.0822 
    119 H119      -82.3000   20.9571  -77.1073 H         1 UNK         0.0807 
    120 H120      -81.0551   20.6256  -75.9013 H         1 UNK         0.0807 
    121 H121      -80.7308   20.3506  -77.6073 H         1 UNK         0.0807 
    122 H122      -82.0392   22.8776  -75.4459 H         1 UNK         0.2946 
    123 H123      -82.6532   26.1937  -75.4813 H         1 UNK         0.1144 
    124 H124      -83.8138   24.0667  -74.8608 H         1 UNK         0.0793 
    125 H125      -83.6707   25.1388  -73.4842 H         1 UNK         0.0793 
    126 H126      -82.6034   23.7498  -73.6158 H         1 UNK         0.0793 
    127 H127      -81.3908   27.0783  -73.8439 H         1 UNK         0.2896 
@<TRIPOS>BOND
     1    1    2 1    
     2    1   67 1    
     3    1   68 1    
     4    1   69 1    
     5    2    3 2    
     6    2    4 am   BACKBONE|DICT|INTERRES
     7    4    5 1    
     8    4   70 1    
     9    5    6 1    
    10    5   65 1    
    11    5   71 1    
    12    6    7 1    
    13    6   72 1    
    14    6   73 1    
    15    7    8 1    
    16    8    9 1    
    17    8   74 1    
    18    8   75 1    
    19    9   10 ar   
    20    9   14 ar   
    21   10   11 ar   
    22   10   76 1    
    23   11   12 ar   
    24   11   48 1    
    25   12   13 ar   
    26   12   77 1    
    27   13   14 ar   
    28   13   15 1    
    29   14   78 1    
    30   15   16 1    
    31   15   79 1    
    32   15   80 1    
    33   16   17 1    
    34   17   18 1    
    35   17   81 1    
    36   17   82 1    
    37   18   19 1    
    38   18   22 1    
    39   18   83 1    
    40   19   20 am   BACKBONE|DICT|INTERRES
    41   19   21 2    
    42   20   84 1    
    43   20   85 1    
    44   22   23 am   BACKBONE|DICT|INTERRES
    45   22   86 1    
    46   23   24 2    
    47   23   25 1    
    48   25   26 1    
    49   25   27 1    
    50   25   87 1    
    51   26   88 1    
    52   26   89 1    
    53   26   90 1    
    54   27   28 am   BACKBONE|DICT|INTERRES
    55   27   91 1    
    56   28   29 2    
    57   28   30 1    
    58   30   31 1    
    59   30   32 1    
    60   30   92 1    
    61   31   93 1    
    62   31   94 1    
    63   31   95 1    
    64   32   33 am   BACKBONE|DICT|INTERRES
    65   32   96 1    
    66   33   34 2    
    67   33   35 1    
    68   35   36 1    
    69   35   37 1    
    70   35   97 1    
    71   36   98 1    
    72   36   99 1    
    73   36  100 1    
    74   37   38 am   BACKBONE|DICT|INTERRES
    75   37  101 1    
    76   38   39 2    
    77   38   40 1    
    78   40   41 1    
    79   40   42 1    
    80   40  102 1    
    81   41  103 1    
    82   41  104 1    
    83   41  105 1    
    84   42   43 am   BACKBONE|DICT|INTERRES
    85   42  106 1    
    86   43   44 2    
    87   43   45 1    
    88   45   46 1    
    89   45   49 1    
    90   45  107 1    
    91   46   47 1    
    92   46  108 1    
    93   46  109 1    
    94   47   48 1    
    95   48  110 1    
    96   48  111 1    
    97   49   50 am   BACKBONE|DICT|INTERRES
    98   49  112 1    
    99   50   51 2    
   100   50   52 1    
   101   52   53 1    
   102   52   54 1    
   103   52  113 1    
   104   53  114 1    
   105   53  115 1    
   106   53  116 1    
   107   54   55 am   BACKBONE|DICT|INTERRES
   108   54  117 1    
   109   55   56 2    
   110   55   57 1    
   111   57   58 1    
   112   57   59 1    
   113   57  118 1    
   114   58  119 1    
   115   58  120 1    
   116   58  121 1    
   117   59   60 am   BACKBONE|DICT|INTERRES
   118   59  122 1    
   119   60   61 2    
   120   60   62 1    
   121   62   63 1    
   122   62   64 1    
   123   62  123 1    
   124   63  124 1    
   125   63  125 1    
   126   63  126 1    
   127   64   65 am   BACKBONE|DICT|INTERRES
   128   64  127 1    
   129   65   66 2    
@<TRIPOS>SUBSTRUCTURE
     1 UNK         1 GROUP             0       ****    0 ROOT    
