@<TRIPOS>MOLECULE
3R135
127   129    1
SMALL
USER_CHARGES


@<TRIPOS>ATOM
      1 CA        -75.8811   22.6290  -74.1210 C.3       0 UNK        -0.1998 
      2 C         -76.5318   23.1457  -72.8467 C.2       0 UNK         0.4909 
      3 O         -75.9043   23.1318  -71.7875 O.2       0 UNK        -0.5240 
      4 N         -77.7794   23.6111  -72.9462 N.am      1 UNK        -0.4739 
      5 CA        -78.5685   24.1720  -71.8499 C.3       1 UNK         0.0864 
      6 C6        -78.2646   25.6842  -71.6631 C.3       11 UNK        -0.0881 
      7 S7        -78.7701   26.3398  -70.0338 S.3       11 UNK        -0.2682 
      8 C8        -79.8516   27.7480  -70.4657 C.3       11 UNK         0.0289 
      9 C9        -79.2096   28.7032  -71.4637 C.ar      11 UNK        -0.0687 
     10 C10       -79.8101   28.9370  -72.7048 C.ar      11 UNK        -0.0823 
     11 C11       -79.2150   29.7980  -73.6324 C.ar      11 UNK        -0.0830 
     12 C12       -78.0023   30.4199  -73.3158 C.ar      11 UNK        -0.1021 
     13 C13       -77.3996   30.2025  -72.0720 C.ar      11 UNK        -0.0753 
     14 C14       -78.0135   29.3524  -71.1482 C.ar      11 UNK        -0.0933 
     15 C15       -76.0897   30.8850  -71.7116 C.3       11 UNK         0.0166 
     16 S16       -74.7230   29.6885  -71.6891 S.3       11 UNK        -0.2615 
     17 C17       -73.3203   30.7574  -71.2179 C.3       11 UNK        -0.0865 
     18 CA        -72.5506   31.3223  -72.4405 C.3       10 UNK         0.0862 
     19 C         -71.3805   32.2428  -71.9860 C.2       10 UNK         0.5551 
     20 N         -70.1276   31.9289  -72.2923 N.am      10 UNK        -0.7319 
     21 O         -71.6179   33.2645  -71.3462 O.2       10 UNK        -0.5018 
     22 N         -72.1742   30.2557  -73.3810 N.am      10 UNK        -0.4509 
     23 C         -71.8929   30.4231  -74.6758 C.2       10 UNK         0.4899 
     24 O         -71.8487   31.5217  -75.2300 O.2       10 UNK        -0.4839 
     25 CA        -71.6437   29.1557  -75.5107 C.3       9 UNK         0.0222 
     26 CB        -70.1618   28.7364  -75.4688 C.3       9 UNK        -0.1966 
     27 N         -72.5375   28.0315  -75.1980 N.am      9 UNK        -0.4218 
     28 C         -72.5868   27.2463  -74.1104 C.2       9 UNK         0.5020 
     29 O         -71.8823   27.4037  -73.1123 O.2       9 UNK        -0.5274 
     30 CA        -73.5945   26.0804  -74.1500 C.3       8 UNK         0.0270 
     31 CB        -74.9761   26.5423  -73.6572 C.3       8 UNK        -0.1976 
     32 N         -73.7175   25.4907  -75.4880 N.am      8 UNK        -0.4313 
     33 C         -72.7308   24.8466  -76.1315 C.2       8 UNK         0.5041 
     34 O         -71.6414   24.5754  -75.6253 O.2       8 UNK        -0.5577 
     35 CA        -72.9907   24.4650  -77.5969 C.3       7 UNK         0.0284 
     36 CB        -73.6633   23.0852  -77.6914 C.3       7 UNK        -0.1958 
     37 N         -73.8103   25.4747  -78.2727 N.am      7 UNK        -0.4454 
     38 C         -73.3292   26.6251  -78.7686 C.2       7 UNK         0.5089 
     39 O         -72.1323   26.9112  -78.7924 O.2       7 UNK        -0.5125 
     40 CA        -74.3492   27.6420  -79.3176 C.3       6 UNK         0.0408 
     41 CB        -74.5582   27.4299  -80.8252 C.3       6 UNK        -0.1791 
     42 N         -75.6461   27.5956  -78.6364 N.am      6 UNK        -0.4762 
     43 C         -75.8515   27.9411  -77.3559 C.2       6 UNK         0.5007 
     44 O         -74.9711   28.4029  -76.6325 O.2       6 UNK        -0.5032 
     45 CA        -77.2540   27.6675  -76.7676 C.3       5 UNK         0.0783 
     46 C46       -78.1295   28.9405  -76.8429 C.3       11 UNK        -0.0857 
     47 S47       -79.7879   28.6918  -76.1207 S.3       11 UNK        -0.2512 
     48 C48       -79.9139   30.0838  -74.9542 C.3       11 UNK         0.0225 
     49 N         -77.9104   26.5042  -77.3827 N.am      5 UNK        -0.4615 
     50 C         -77.4262   25.2559  -77.3834 C.2       4 UNK         0.5053 
     51 O         -76.3489   24.9491  -76.8690 O.2       4 UNK        -0.5105 
     52 CA        -78.2856   24.2001  -78.1037 C.3       4 UNK         0.0263 
     53 CB        -77.6535   22.7919  -78.0875 C.3       4 UNK        -0.1981 
     54 N         -79.6661   24.1642  -77.6032 N.am      4 UNK        -0.4224 
     55 C         -80.0523   23.9012  -76.3468 C.2       3 UNK         0.4895 
     56 O         -79.2748   23.6339  -75.4251 O.2       3 UNK        -0.5091 
     57 CA        -81.5668   23.9256  -76.0873 C.3       3 UNK         0.0250 
     58 CB        -82.2459   22.6719  -76.6647 C.3       3 UNK        -0.1996 
     59 N         -81.7785   23.9569  -74.6460 N.am      3 UNK        -0.4254 
     60 C         -82.5479   24.8069  -73.9627 C.2       2 UNK         0.5004 
     61 O         -83.3446   25.5860  -74.4864 O.2       2 UNK        -0.5226 
     62 CA        -82.3615   24.8299  -72.4323 C.3       2 UNK         0.0269 
     63 CB        -83.1899   23.7273  -71.7439 C.3       2 UNK        -0.1926 
     64 N         -80.9470   24.8070  -72.0159 N.am      2 UNK        -0.4687 
     65 C         -80.0432   23.8225  -72.1311 C.2       1 UNK         0.5165 
     66 O         -80.3288   22.6829  -72.5063 O.2       1 UNK        -0.5079 
     67 H67       -74.8839   23.0530  -74.2340 H         1 UNK         0.0900 
     68 H68       -76.4605   22.8988  -75.0033 H         1 UNK         0.0900 
     69 H69       -75.7911   21.5439  -74.0869 H         1 UNK         0.0900 
     70 H70       -78.2726   23.5535  -73.8375 H         1 UNK         0.2959 
     71 H71       -78.3058   23.6444  -70.9301 H         1 UNK         0.1079 
     72 H72       -77.1876   25.8468  -71.7194 H         1 UNK         0.0837 
     73 H73       -78.6798   26.2689  -72.4851 H         1 UNK         0.0837 
     74 H74       -80.8036   27.3733  -70.8425 H         1 UNK         0.0685 
     75 H75       -80.0859   28.2984  -69.5535 H         1 UNK         0.0685 
     76 H76       -80.7440   28.4519  -72.9546 H         1 UNK         0.1434 
     77 H77       -77.5351   31.0842  -74.0299 H         1 UNK         0.1329 
     78 H78       -77.5456   29.1768  -70.1890 H         1 UNK         0.1335 
     79 H79       -75.8596   31.6816  -72.4209 H         1 UNK         0.0680 
     80 H80       -76.1822   31.3538  -70.7308 H         1 UNK         0.0680 
     81 H81       -72.6481   30.1661  -70.5932 H         1 UNK         0.1032 
     82 H82       -73.6844   31.5668  -70.5820 H         1 UNK         0.1032 
     83 H83       -73.2427   31.9772  -72.9735 H         1 UNK         0.0461 
     84 H84       -69.3773   32.5332  -71.9964 H         1 UNK         0.3453 
     85 H85       -69.9294   31.0939  -72.8197 H         1 UNK         0.3453 
     86 H86       -72.1656   29.3080  -73.0155 H         1 UNK         0.2984 
     87 H87       -71.8756   29.4174  -76.5444 H         1 UNK         0.0554 
     88 H88       -69.9765   27.8803  -76.1180 H         1 UNK         0.0847 
     89 H89       -69.8387   28.4699  -74.4623 H         1 UNK         0.0847 
     90 H90       -69.5187   29.5483  -75.8108 H         1 UNK         0.0847 
     91 H91       -73.2781   27.8947  -75.8810 H         1 UNK         0.3141 
     92 H92       -73.2354   25.2973  -73.4789 H         1 UNK         0.0743 
     93 H93       -74.9534   26.7318  -72.5835 H         1 UNK         0.0784 
     94 H94       -75.2930   27.4689  -74.1356 H         1 UNK         0.0784 
     95 H95       -75.7448   25.7926  -73.8397 H         1 UNK         0.0784 
     96 H96       -74.6081   25.5917  -75.9627 H         1 UNK         0.3213 
     97 H97       -72.0246   24.4013  -78.1029 H         1 UNK         0.0855 
     98 H98       -74.6006   23.0459  -77.1368 H         1 UNK         0.0814 
     99 H99       -73.0145   22.3122  -77.2778 H         1 UNK         0.0814 
    100 H100      -73.8717   22.8134  -78.7262 H         1 UNK         0.0814 
    101 H101      -74.8129   25.3387  -78.2328 H         1 UNK         0.3105 
    102 H102      -73.9298   28.6396  -79.1702 H         1 UNK         0.0547 
    103 H103      -73.6098   27.4872  -81.3615 H         1 UNK         0.0837 
    104 H104      -74.9949   26.4540  -81.0410 H         1 UNK         0.0837 
    105 H105      -75.2123   28.1929  -81.2473 H         1 UNK         0.0837 
    106 H106      -76.4266   27.2301  -79.1628 H         1 UNK         0.3020 
    107 H107      -77.1103   27.4249  -75.7126 H         1 UNK         0.1245 
    108 H108      -78.2586   29.2594  -77.8790 H         1 UNK         0.0781 
    109 H109      -77.6331   29.7669  -76.3303 H         1 UNK         0.0781 
    110 H110      -80.9701   30.2773  -74.7605 H         1 UNK         0.0836 
    111 H111      -79.5255   30.9925  -75.4168 H         1 UNK         0.0836 
    112 H112      -78.8150   26.6769  -77.7966 H         1 UNK         0.3022 
    113 H113      -78.3430   24.5157  -79.1466 H         1 UNK         0.0747 
    114 H114      -78.2636   22.0787  -78.6414 H         1 UNK         0.0793 
    115 H115      -76.6674   22.8018  -78.5527 H         1 UNK         0.0793 
    116 H116      -77.5316   22.4090  -77.0747 H         1 UNK         0.0793 
    117 H117      -80.3822   24.3714  -78.2861 H         1 UNK         0.3047 
    118 H118      -81.9836   24.8219  -76.5519 H         1 UNK         0.0822 
    119 H119      -83.3162   22.6729  -76.4573 H         1 UNK         0.0807 
    120 H120      -81.8256   21.7571  -76.2442 H         1 UNK         0.0807 
    121 H121      -82.1271   22.6193  -77.7475 H         1 UNK         0.0807 
    122 H122      -81.1298   23.3848  -74.1105 H         1 UNK         0.2946 
    123 H123      -82.7544   25.7891  -72.0901 H         1 UNK         0.1144 
    124 H124      -84.2510   23.8470  -71.9663 H         1 UNK         0.0793 
    125 H125      -83.0794   23.7667  -70.6603 H         1 UNK         0.0793 
    126 H126      -82.9046   22.7285  -72.0748 H         1 UNK         0.0793 
    127 H127      -80.5891   25.6917  -71.6836 H         1 UNK         0.2896 
@<TRIPOS>BOND
     1    1    2 1    
     2    1   67 1    
     3    1   68 1    
     4    1   69 1    
     5    2    3 2    
     6    2    4 am   BACKBONE|DICT|INTERRES
     7    4    5 1    
     8    4   70 1    
     9    5    6 1    
    10    5   65 1    
    11    5   71 1    
    12    6    7 1    
    13    6   72 1    
    14    6   73 1    
    15    7    8 1    
    16    8    9 1    
    17    8   74 1    
    18    8   75 1    
    19    9   10 ar   
    20    9   14 ar   
    21   10   11 ar   
    22   10   76 1    
    23   11   12 ar   
    24   11   48 1    
    25   12   13 ar   
    26   12   77 1    
    27   13   14 ar   
    28   13   15 1    
    29   14   78 1    
    30   15   16 1    
    31   15   79 1    
    32   15   80 1    
    33   16   17 1    
    34   17   18 1    
    35   17   81 1    
    36   17   82 1    
    37   18   19 1    
    38   18   22 1    
    39   18   83 1    
    40   19   20 am   BACKBONE|DICT|INTERRES
    41   19   21 2    
    42   20   84 1    
    43   20   85 1    
    44   22   23 am   BACKBONE|DICT|INTERRES
    45   22   86 1    
    46   23   24 2    
    47   23   25 1    
    48   25   26 1    
    49   25   27 1    
    50   25   87 1    
    51   26   88 1    
    52   26   89 1    
    53   26   90 1    
    54   27   28 am   BACKBONE|DICT|INTERRES
    55   27   91 1    
    56   28   29 2    
    57   28   30 1    
    58   30   31 1    
    59   30   32 1    
    60   30   92 1    
    61   31   93 1    
    62   31   94 1    
    63   31   95 1    
    64   32   33 am   BACKBONE|DICT|INTERRES
    65   32   96 1    
    66   33   34 2    
    67   33   35 1    
    68   35   36 1    
    69   35   37 1    
    70   35   97 1    
    71   36   98 1    
    72   36   99 1    
    73   36  100 1    
    74   37   38 am   BACKBONE|DICT|INTERRES
    75   37  101 1    
    76   38   39 2    
    77   38   40 1    
    78   40   41 1    
    79   40   42 1    
    80   40  102 1    
    81   41  103 1    
    82   41  104 1    
    83   41  105 1    
    84   42   43 am   BACKBONE|DICT|INTERRES
    85   42  106 1    
    86   43   44 2    
    87   43   45 1    
    88   45   46 1    
    89   45   49 1    
    90   45  107 1    
    91   46   47 1    
    92   46  108 1    
    93   46  109 1    
    94   47   48 1    
    95   48  110 1    
    96   48  111 1    
    97   49   50 am   BACKBONE|DICT|INTERRES
    98   49  112 1    
    99   50   51 2    
   100   50   52 1    
   101   52   53 1    
   102   52   54 1    
   103   52  113 1    
   104   53  114 1    
   105   53  115 1    
   106   53  116 1    
   107   54   55 am   BACKBONE|DICT|INTERRES
   108   54  117 1    
   109   55   56 2    
   110   55   57 1    
   111   57   58 1    
   112   57   59 1    
   113   57  118 1    
   114   58  119 1    
   115   58  120 1    
   116   58  121 1    
   117   59   60 am   BACKBONE|DICT|INTERRES
   118   59  122 1    
   119   60   61 2    
   120   60   62 1    
   121   62   63 1    
   122   62   64 1    
   123   62  123 1    
   124   63  124 1    
   125   63  125 1    
   126   63  126 1    
   127   64   65 am   BACKBONE|DICT|INTERRES
   128   64  127 1    
   129   65   66 2    
@<TRIPOS>SUBSTRUCTURE
     1 UNK         1 GROUP             0       ****    0 ROOT    
