@<TRIPOS>MOLECULE
3R135
127   129    1
SMALL
USER_CHARGES


@<TRIPOS>ATOM
      1 CA        -81.7659   28.5489  -70.2716 C.3       0 UNK        -0.1998 
      2 C         -82.4241   28.0658  -71.5554 C.2       0 UNK         0.4909 
      3 O         -83.5197   27.5063  -71.5096 O.2       0 UNK        -0.5240 
      4 N         -81.7670   28.2894  -72.7006 N.am      1 UNK        -0.4739 
      5 CA        -82.2636   27.9554  -74.0428 C.3       1 UNK         0.0864 
      6 C6        -81.4063   28.5828  -75.1767 C.3       11 UNK        -0.0881 
      7 S7        -80.9158   30.3240  -74.9165 S.3       11 UNK        -0.2682 
      8 C8        -79.0961   30.2186  -75.0425 C.3       11 UNK         0.0289 
      9 C9        -78.4318   29.9226  -73.7031 C.ar      11 UNK        -0.0687 
     10 C10       -78.6044   28.6858  -73.0726 C.ar      11 UNK        -0.0823 
     11 C11       -78.0307   28.4353  -71.8224 C.ar      11 UNK        -0.0830 
     12 C12       -77.2301   29.4123  -71.2279 C.ar      11 UNK        -0.1021 
     13 C13       -76.9934   30.6261  -71.8776 C.ar      11 UNK        -0.0753 
     14 C14       -77.6169   30.8865  -73.1009 C.ar      11 UNK        -0.0933 
     15 C15       -76.0415   31.6441  -71.2689 C.3       11 UNK         0.0166 
     16 S16       -74.3965   31.5714  -72.0510 S.3       11 UNK        -0.2615 
     17 C17       -73.8421   29.8917  -71.5927 C.3       11 UNK        -0.0865 
     18 CA        -72.5283   29.4789  -72.3003 C.3       10 UNK         0.0862 
     19 C         -72.0244   28.1190  -71.7580 C.2       10 UNK         0.5551 
     20 N         -70.9558   28.1172  -70.9738 N.am      10 UNK        -0.7319 
     21 O         -72.6179   27.0722  -72.0093 O.2       10 UNK        -0.5018 
     22 N         -72.7128   29.3712  -73.7504 N.am      10 UNK        -0.4509 
     23 C         -72.0239   30.0456  -74.6758 C.2       10 UNK         0.4899 
     24 O         -71.1922   30.9194  -74.4219 O.2       10 UNK        -0.4839 
     25 CA        -72.3079   29.6445  -76.1354 C.3       9 UNK         0.0222 
     26 CB        -71.4353   30.3998  -77.1602 C.3       9 UNK        -0.1966 
     27 N         -72.2116   28.1937  -76.3306 N.am      9 UNK        -0.4218 
     28 C         -71.1443   27.4052  -76.1226 C.2       9 UNK         0.5020 
     29 O         -70.0337   27.8211  -75.7894 O.2       9 UNK        -0.5274 
     30 CA        -71.3374   25.8858  -76.2978 C.3       8 UNK         0.0270 
     31 CB        -71.3444   25.1903  -74.9271 C.3       8 UNK        -0.1976 
     32 N         -72.5561   25.5222  -77.0269 N.am      8 UNK        -0.4313 
     33 C         -72.7378   25.7070  -78.3417 C.2       8 UNK         0.5041 
     34 O         -71.8693   26.1415  -79.0992 O.2       8 UNK        -0.5577 
     35 CA        -74.1323   25.3837  -78.9016 C.3       7 UNK         0.0284 
     36 CB        -74.2571   23.8831  -79.2098 C.3       7 UNK        -0.1958 
     37 N         -75.2212   25.8025  -78.0123 N.am      7 UNK        -0.4454 
     38 C         -75.5001   27.0758  -77.6928 C.2       7 UNK         0.5089 
     39 O         -74.8690   28.0429  -78.1181 O.2       7 UNK        -0.5125 
     40 CA        -76.6530   27.3104  -76.7019 C.3       6 UNK         0.0408 
     41 CB        -78.0085   27.0791  -77.3873 C.3       6 UNK        -0.1791 
     42 N         -76.5337   26.4685  -75.5090 N.am      6 UNK        -0.4762 
     43 C         -75.5326   26.5679  -74.6181 C.2       6 UNK         0.5007 
     44 O         -74.6797   27.4560  -74.6526 O.2       6 UNK        -0.5032 
     45 CA        -75.4034   25.4559  -73.5574 C.3       5 UNK         0.0783 
     46 C46       -75.9955   25.8489  -72.1824 C.3       11 UNK        -0.0857 
     47 S47       -77.8084   25.6737  -72.0910 S.3       11 UNK        -0.2512 
     48 C48       -78.2820   27.1190  -71.1005 C.3       11 UNK         0.0225 
     49 N         -75.9054   24.1648  -74.0366 N.am      5 UNK        -0.4615 
     50 C         -75.2995   23.4149  -74.9630 C.2       4 UNK         0.5053 
     51 O         -74.2467   23.7302  -75.5170 O.2       4 UNK        -0.5105 
     52 CA        -76.0087   22.1101  -75.3560 C.3       4 UNK         0.0263 
     53 CB        -75.9233   21.0730  -74.2240 C.3       4 UNK        -0.1981 
     54 N         -77.4093   22.3137  -75.7387 N.am      4 UNK        -0.4224 
     55 C         -77.8023   23.0202  -76.8078 C.2       3 UNK         0.4895 
     56 O         -77.0296   23.6189  -77.5546 O.2       3 UNK        -0.5091 
     57 CA        -79.3102   23.0728  -77.1035 C.3       3 UNK         0.0250 
     58 CB        -79.7361   21.8495  -77.9313 C.3       3 UNK        -0.1996 
     59 N         -80.1685   23.1867  -75.9197 N.am      3 UNK        -0.4254 
     60 C         -80.1484   24.2168  -75.0641 C.2       2 UNK         0.5004 
     61 O         -79.3053   25.1172  -75.0962 O.2       2 UNK        -0.5226 
     62 CA        -81.2608   24.2470  -74.0014 C.3       2 UNK         0.0269 
     63 CB        -80.8631   23.4430  -72.7535 C.3       2 UNK        -0.1926 
     64 N         -81.5361   25.6352  -73.6264 N.am      2 UNK        -0.4687 
     65 C         -82.3742   26.4362  -74.3011 C.2       1 UNK         0.5165 
     66 O         -83.1751   26.0276  -75.1438 O.2       1 UNK        -0.5079 
     67 H67       -81.5337   27.7024  -69.6262 H         1 UNK         0.0900 
     68 H68       -82.4411   29.2126  -69.7321 H         1 UNK         0.0900 
     69 H69       -80.8428   29.0952  -70.4663 H         1 UNK         0.0900 
     70 H70       -80.8982   28.8055  -72.6808 H         1 UNK         0.2959 
     71 H71       -83.2731   28.3656  -74.1187 H         1 UNK         0.1079 
     72 H72       -81.9590   28.5392  -76.1173 H         1 UNK         0.0837 
     73 H73       -80.5105   27.9865  -75.3485 H         1 UNK         0.0837 
     74 H74       -78.7348   31.1696  -75.4368 H         1 UNK         0.0685 
     75 H75       -78.8047   29.4684  -75.7766 H         1 UNK         0.0685 
     76 H76       -79.1849   27.9102  -73.5488 H         1 UNK         0.1434 
     77 H77       -76.7653   29.2188  -70.2707 H         1 UNK         0.1329 
     78 H78       -77.4450   31.8338  -73.5934 H         1 UNK         0.1335 
     79 H79       -76.4499   32.6480  -71.3938 H         1 UNK         0.0680 
     80 H80       -75.9392   31.4860  -70.1941 H         1 UNK         0.0680 
     81 H81       -73.7231   29.8606  -70.5079 H         1 UNK         0.1032 
     82 H82       -74.6235   29.1727  -71.8403 H         1 UNK         0.1032 
     83 H83       -71.7745   30.2358  -72.0738 H         1 UNK         0.0461 
     84 H84       -70.6255   27.2411  -70.6009 H         1 UNK         0.3453 
     85 H85       -70.4676   28.9715  -70.7537 H         1 UNK         0.3453 
     86 H86       -73.3597   28.6447  -74.0526 H         1 UNK         0.2984 
     87 H87       -73.3485   29.9082  -76.3305 H         1 UNK         0.0554 
     88 H88       -71.6837   30.1090  -78.1809 H         1 UNK         0.0847 
     89 H89       -70.3721   30.2123  -77.0070 H         1 UNK         0.0847 
     90 H90       -71.5890   31.4767  -77.0831 H         1 UNK         0.0847 
     91 H91       -73.0808   27.7417  -76.5848 H         1 UNK         0.3141 
     92 H92       -70.4812   25.5126  -76.8636 H         1 UNK         0.0743 
     93 H93       -70.4219   25.3912  -74.3807 H         1 UNK         0.0784 
     94 H94       -72.1697   25.5396  -74.3072 H         1 UNK         0.0784 
     95 H95       -71.4331   24.1085  -75.0283 H         1 UNK         0.0784 
     96 H96       -73.2946   25.0697  -76.4914 H         1 UNK         0.3213 
     97 H97       -74.2440   25.9324  -79.8392 H         1 UNK         0.0855 
     98 H98       -74.2023   23.2787  -78.3035 H         1 UNK         0.0814 
     99 H99       -73.4580   23.5516  -79.8741 H         1 UNK         0.0814 
    100 H100      -75.2027   23.6581  -79.7033 H         1 UNK         0.0814 
    101 H101      -75.8182   25.0617  -77.6495 H         1 UNK         0.3105 
    102 H102      -76.6119   28.3519  -76.3759 H         1 UNK         0.0547 
    103 H103      -78.8353   27.2438  -76.7004 H         1 UNK         0.0837 
    104 H104      -78.1414   27.7624  -78.2268 H         1 UNK         0.0837 
    105 H105      -78.1026   26.0656  -77.7754 H         1 UNK         0.0837 
    106 H106      -77.2344   25.7458  -75.3832 H         1 UNK         0.3020 
    107 H107      -74.3293   25.3369  -73.3996 H         1 UNK         0.1245 
    108 H108      -75.6941   26.8621  -71.9108 H         1 UNK         0.0781 
    109 H109      -75.5696   25.2050  -71.4117 H         1 UNK         0.0781 
    110 H110      -77.7509   27.0827  -70.1479 H         1 UNK         0.0836 
    111 H111      -79.3420   27.0404  -70.8618 H         1 UNK         0.0836 
    112 H112      -76.7913   23.8670  -73.6539 H         1 UNK         0.3022 
    113 H113      -75.4845   21.7042  -76.2241 H         1 UNK         0.0747 
    114 H114      -76.3246   20.1096  -74.5392 H         1 UNK         0.0793 
    115 H115      -74.8871   20.9073  -73.9251 H         1 UNK         0.0793 
    116 H116      -76.4719   21.3902  -73.3363 H         1 UNK         0.0793 
    117 H117      -78.1144   21.8625  -75.1747 H         1 UNK         0.3047 
    118 H118      -79.4837   23.9635  -77.7111 H         1 UNK         0.0822 
    119 H119      -79.1244   21.7543  -78.8299 H         1 UNK         0.0807 
    120 H120      -80.7732   21.9313  -78.2570 H         1 UNK         0.0807 
    121 H121      -79.6324   20.9218  -77.3671 H         1 UNK         0.0807 
    122 H122      -80.8816   22.4793  -75.8127 H         1 UNK         0.2946 
    123 H123      -82.1628   23.7991  -74.4253 H         1 UNK         0.1144 
    124 H124      -80.6882   22.3956  -73.0020 H         1 UNK         0.0793 
    125 H125      -81.6513   23.4686  -72.0009 H         1 UNK         0.0793 
    126 H126      -79.9527   23.8225  -72.2934 H         1 UNK         0.0793 
    127 H127      -80.8813   26.0621  -72.9882 H         1 UNK         0.2896 
@<TRIPOS>BOND
     1    1    2 1    
     2    1   67 1    
     3    1   68 1    
     4    1   69 1    
     5    2    3 2    
     6    2    4 am   BACKBONE|DICT|INTERRES
     7    4    5 1    
     8    4   70 1    
     9    5    6 1    
    10    5   65 1    
    11    5   71 1    
    12    6    7 1    
    13    6   72 1    
    14    6   73 1    
    15    7    8 1    
    16    8    9 1    
    17    8   74 1    
    18    8   75 1    
    19    9   10 ar   
    20    9   14 ar   
    21   10   11 ar   
    22   10   76 1    
    23   11   12 ar   
    24   11   48 1    
    25   12   13 ar   
    26   12   77 1    
    27   13   14 ar   
    28   13   15 1    
    29   14   78 1    
    30   15   16 1    
    31   15   79 1    
    32   15   80 1    
    33   16   17 1    
    34   17   18 1    
    35   17   81 1    
    36   17   82 1    
    37   18   19 1    
    38   18   22 1    
    39   18   83 1    
    40   19   20 am   BACKBONE|DICT|INTERRES
    41   19   21 2    
    42   20   84 1    
    43   20   85 1    
    44   22   23 am   BACKBONE|DICT|INTERRES
    45   22   86 1    
    46   23   24 2    
    47   23   25 1    
    48   25   26 1    
    49   25   27 1    
    50   25   87 1    
    51   26   88 1    
    52   26   89 1    
    53   26   90 1    
    54   27   28 am   BACKBONE|DICT|INTERRES
    55   27   91 1    
    56   28   29 2    
    57   28   30 1    
    58   30   31 1    
    59   30   32 1    
    60   30   92 1    
    61   31   93 1    
    62   31   94 1    
    63   31   95 1    
    64   32   33 am   BACKBONE|DICT|INTERRES
    65   32   96 1    
    66   33   34 2    
    67   33   35 1    
    68   35   36 1    
    69   35   37 1    
    70   35   97 1    
    71   36   98 1    
    72   36   99 1    
    73   36  100 1    
    74   37   38 am   BACKBONE|DICT|INTERRES
    75   37  101 1    
    76   38   39 2    
    77   38   40 1    
    78   40   41 1    
    79   40   42 1    
    80   40  102 1    
    81   41  103 1    
    82   41  104 1    
    83   41  105 1    
    84   42   43 am   BACKBONE|DICT|INTERRES
    85   42  106 1    
    86   43   44 2    
    87   43   45 1    
    88   45   46 1    
    89   45   49 1    
    90   45  107 1    
    91   46   47 1    
    92   46  108 1    
    93   46  109 1    
    94   47   48 1    
    95   48  110 1    
    96   48  111 1    
    97   49   50 am   BACKBONE|DICT|INTERRES
    98   49  112 1    
    99   50   51 2    
   100   50   52 1    
   101   52   53 1    
   102   52   54 1    
   103   52  113 1    
   104   53  114 1    
   105   53  115 1    
   106   53  116 1    
   107   54   55 am   BACKBONE|DICT|INTERRES
   108   54  117 1    
   109   55   56 2    
   110   55   57 1    
   111   57   58 1    
   112   57   59 1    
   113   57  118 1    
   114   58  119 1    
   115   58  120 1    
   116   58  121 1    
   117   59   60 am   BACKBONE|DICT|INTERRES
   118   59  122 1    
   119   60   61 2    
   120   60   62 1    
   121   62   63 1    
   122   62   64 1    
   123   62  123 1    
   124   63  124 1    
   125   63  125 1    
   126   63  126 1    
   127   64   65 am   BACKBONE|DICT|INTERRES
   128   64  127 1    
   129   65   66 2    
@<TRIPOS>SUBSTRUCTURE
     1 UNK         1 GROUP             0       ****    0 ROOT    
