@<TRIPOS>MOLECULE
3R135
127   129    1
SMALL
USER_CHARGES


@<TRIPOS>ATOM
      1 CA        -83.2896   25.3828  -71.0805 C.3       0 UNK        -0.1998 
      2 C         -83.0459   26.5776  -71.9903 C.2       0 UNK         0.4909 
      3 O         -83.9969   27.1290  -72.5460 O.2       0 UNK        -0.5240 
      4 N         -81.7797   26.9848  -72.1400 N.am      1 UNK        -0.4739 
      5 CA        -81.3513   28.0649  -73.0346 C.3       1 UNK         0.0864 
      6 C6        -79.9385   28.5821  -72.6672 C.3       11 UNK        -0.0881 
      7 S7        -79.9665   29.5361  -71.1135 S.3       11 UNK        -0.2682 
      8 C8        -79.2738   28.3538  -69.9088 C.3       11 UNK         0.0289 
      9 C9        -77.7785   28.1078  -70.0850 C.ar      11 UNK        -0.0687 
     10 C10       -77.2752   26.8027  -70.0603 C.ar      11 UNK        -0.0823 
     11 C11       -75.9006   26.5655  -70.1737 C.ar      11 UNK        -0.0830 
     12 C12       -75.0269   27.6469  -70.3215 C.ar      11 UNK        -0.1021 
     13 C13       -75.5180   28.9552  -70.3566 C.ar      11 UNK        -0.0753 
     14 C14       -76.8906   29.1794  -70.2252 C.ar      11 UNK        -0.0933 
     15 C15       -74.5651   30.1279  -70.5263 C.3       11 UNK         0.0166 
     16 S16       -73.9886   30.2866  -72.2434 S.3       11 UNK        -0.2615 
     17 C17       -75.5073   30.8189  -73.1115 C.3       11 UNK        -0.0865 
     18 CA        -75.3176   30.9533  -74.6460 C.3       10 UNK         0.0862 
     19 C         -74.3937   32.1547  -75.0141 C.2       10 UNK         0.5551 
     20 N         -73.1926   31.9372  -75.5401 N.am      10 UNK        -0.7319 
     21 O         -74.7834   33.3045  -74.8258 O.2       10 UNK        -0.5018 
     22 N         -74.9293   29.6693  -75.2467 N.am      10 UNK        -0.4509 
     23 C         -74.9554   29.3889  -76.5559 C.2       10 UNK         0.4899 
     24 O         -75.4725   30.1241  -77.3975 O.2       10 UNK        -0.4839 
     25 CA        -74.2980   28.0658  -77.0011 C.3       9 UNK         0.0222 
     26 CB        -73.6557   28.1690  -78.3994 C.3       9 UNK        -0.1966 
     27 N         -73.3399   27.5097  -76.0358 N.am      9 UNK        -0.4218 
     28 C         -72.2112   28.0654  -75.5657 C.2       9 UNK         0.5020 
     29 O         -71.8249   29.1945  -75.8722 O.2       9 UNK        -0.5274 
     30 CA        -71.3829   27.2325  -74.5730 C.3       8 UNK         0.0270 
     31 CB        -71.8692   27.4665  -73.1339 C.3       8 UNK        -0.1976 
     32 N         -71.4572   25.7997  -74.8693 N.am      8 UNK        -0.4313 
     33 C         -70.4302   25.0446  -75.2824 C.2       8 UNK         0.5041 
     34 O         -69.2830   25.4670  -75.4357 O.2       8 UNK        -0.5577 
     35 CA        -70.7193   23.5584  -75.5724 C.3       7 UNK         0.0284 
     36 CB        -70.4015   22.7004  -74.3368 C.3       7 UNK        -0.1958 
     37 N         -72.0997   23.3048  -75.9915 N.am      7 UNK        -0.4454 
     38 C         -72.6377   23.7275  -77.1434 C.2       7 UNK         0.5089 
     39 O         -71.9971   24.2922  -78.0301 O.2       7 UNK        -0.5125 
     40 CA        -74.1500   23.5098  -77.3359 C.3       6 UNK         0.0408 
     41 CB        -74.4061   22.3134  -78.2654 C.3       6 UNK        -0.1791 
     42 N         -74.9370   23.3348  -76.1070 N.am      6 UNK        -0.4762 
     43 C         -75.0251   24.2027  -75.0887 C.2       6 UNK         0.5007 
     44 O         -74.3023   25.1943  -74.9870 O.2       6 UNK        -0.5032 
     45 CA        -76.1451   23.9482  -74.0536 C.3       5 UNK         0.0783 
     46 C46       -76.0871   24.9048  -72.8363 C.3       11 UNK        -0.0857 
     47 S47       -74.6747   24.5983  -71.7242 S.3       11 UNK        -0.2512 
     48 C48       -75.3594   25.1410  -70.1245 C.3       11 UNK         0.0225 
     49 N         -77.4415   24.0789  -74.7191 N.am      5 UNK        -0.4615 
     50 C         -78.0135   23.1793  -75.5290 C.2       4 UNK         0.5053 
     51 O         -77.5800   22.0390  -75.6972 O.2       4 UNK        -0.5105 
     52 CA        -79.2346   23.6620  -76.3301 C.3       4 UNK         0.0263 
     53 CB        -80.5369   23.3100  -75.5942 C.3       4 UNK        -0.1981 
     54 N         -79.1906   25.1060  -76.5973 N.am      4 UNK        -0.4224 
     55 C         -78.3156   25.6987  -77.4298 C.2       3 UNK         0.4895 
     56 O         -77.4924   25.0711  -78.0973 O.2       3 UNK        -0.5091 
     57 CA        -78.3230   27.2426  -77.5046 C.3       3 UNK         0.0250 
     58 CB        -77.8754   27.7758  -78.8821 C.3       3 UNK        -0.1996 
     59 N         -79.5867   27.8593  -77.0837 N.am      3 UNK        -0.4254 
     60 C         -80.8025   27.6829  -77.6237 C.2       2 UNK         0.5004 
     61 O         -81.0076   27.0456  -78.6579 O.2       2 UNK        -0.5226 
     62 CA        -81.9938   28.2958  -76.8544 C.3       2 UNK         0.0269 
     63 CB        -83.2885   27.4789  -77.0551 C.3       2 UNK        -0.1926 
     64 N         -81.7610   28.5116  -75.4135 N.am      2 UNK        -0.4687 
     65 C         -81.4032   27.5933  -74.5007 C.2       1 UNK         0.5165 
     66 O         -81.0794   26.4364  -74.7810 O.2       1 UNK        -0.5079 
     67 H67       -82.3648   25.0087  -70.6415 H         1 UNK         0.0900 
     68 H68       -83.7503   24.5715  -71.6434 H         1 UNK         0.0900 
     69 H69       -83.9619   25.6601  -70.2690 H         1 UNK         0.0900 
     70 H70       -81.0379   26.4707  -71.6896 H         1 UNK         0.2959 
     71 H71       -82.0607   28.8895  -72.9292 H         1 UNK         0.1079 
     72 H72       -79.5574   29.2538  -73.4391 H         1 UNK         0.0837 
     73 H73       -79.2199   27.7629  -72.5999 H         1 UNK         0.0837 
     74 H74       -79.4389   28.7484  -68.9055 H         1 UNK         0.0685 
     75 H75       -79.8341   27.4198  -69.9653 H         1 UNK         0.0685 
     76 H76       -77.9536   25.9693  -69.9394 H         1 UNK         0.1434 
     77 H77       -73.9644   27.4694  -70.4196 H         1 UNK         0.1329 
     78 H78       -77.2709   30.1917  -70.2359 H         1 UNK         0.1335 
     79 H79       -73.7001   29.9863  -69.8769 H         1 UNK         0.0680 
     80 H80       -75.0334   31.0622  -70.2127 H         1 UNK         0.0680 
     81 H81       -76.2972   30.0940  -72.9098 H         1 UNK         0.1032 
     82 H82       -75.8528   31.7611  -72.6815 H         1 UNK         0.1032 
     83 H83       -76.2962   31.2024  -75.0610 H         1 UNK         0.0461 
     84 H84       -72.8496   30.9928  -75.6755 H         1 UNK         0.3453 
     85 H85       -72.6077   32.7223  -75.7766 H         1 UNK         0.3453 
     86 H86       -74.4680   29.0221  -74.6250 H         1 UNK         0.2984 
     87 H87       -75.1055   27.3356  -77.0660 H         1 UNK         0.0554 
     88 H88       -73.2226   27.2168  -78.7066 H         1 UNK         0.0847 
     89 H89       -72.8666   28.9211  -78.4259 H         1 UNK         0.0847 
     90 H90       -74.3939   28.4451  -79.1533 H         1 UNK         0.0847 
     91 H91       -73.6162   26.6044  -75.6545 H         1 UNK         0.3141 
     92 H92       -70.3505   27.5816  -74.6400 H         1 UNK         0.0743 
     93 H93       -72.9234   27.2118  -73.0112 H         1 UNK         0.0784 
     94 H94       -71.2982   26.8717  -72.4209 H         1 UNK         0.0784 
     95 H95       -71.7443   28.5117  -72.8513 H         1 UNK         0.0784 
     96 H96       -72.3741   25.3692  -74.7945 H         1 UNK         0.3213 
     97 H97       -70.0584   23.2484  -76.3850 H         1 UNK         0.0855 
     98 H98       -69.3692   22.8477  -74.0158 H         1 UNK         0.0814 
     99 H99       -70.5243   21.6379  -74.5477 H         1 UNK         0.0814 
    100 H100      -71.0440   22.9536  -73.4923 H         1 UNK         0.0814 
    101 H101      -72.7056   22.8412  -75.3303 H         1 UNK         0.3105 
    102 H102      -74.5344   24.4057  -77.8284 H         1 UNK         0.0547 
    103 H103      -73.8626   22.4230  -79.2051 H         1 UNK         0.0837 
    104 H104      -74.0873   21.3745  -77.8112 H         1 UNK         0.0837 
    105 H105      -75.4638   22.2257  -78.5152 H         1 UNK         0.0837 
    106 H106      -75.6095   22.5749  -76.1153 H         1 UNK         0.3020 
    107 H107      -76.0381   22.9230  -73.6914 H         1 UNK         0.1245 
    108 H108      -77.0002   24.7866  -72.2508 H         1 UNK         0.0781 
    109 H109      -76.0677   25.9507  -73.1502 H         1 UNK         0.0781 
    110 H110      -74.5772   25.0798  -69.3667 H         1 UNK         0.0836 
    111 H111      -76.1367   24.4403  -69.8158 H         1 UNK         0.0836 
    112 H112      -77.8717   24.9898  -74.6662 H         1 UNK         0.3022 
    113 H113      -79.2306   23.1400  -77.2893 H         1 UNK         0.0747 
    114 H114      -80.6235   22.2322  -75.4501 H         1 UNK         0.0793 
    115 H115      -80.5837   23.7751  -74.6087 H         1 UNK         0.0793 
    116 H116      -81.4117   23.6341  -76.1583 H         1 UNK         0.0793 
    117 H117      -79.8519   25.6790  -76.0784 H         1 UNK         0.3047 
    118 H118      -77.5811   27.5697  -76.7754 H         1 UNK         0.0822 
    119 H119      -78.5419   27.4481  -79.6802 H         1 UNK         0.0807 
    120 H120      -76.8732   27.4261  -79.1327 H         1 UNK         0.0807 
    121 H121      -77.8449   28.8654  -78.8938 H         1 UNK         0.0807 
    122 H122      -79.5418   28.4095  -76.2380 H         1 UNK         0.2946 
    123 H123      -82.1528   29.2816  -77.2949 H         1 UNK         0.1144 
    124 H124      -83.5624   27.4236  -78.1095 H         1 UNK         0.0793 
    125 H125      -83.1789   26.4559  -76.6928 H         1 UNK         0.0793 
    126 H126      -84.1293   27.9315  -76.5294 H         1 UNK         0.0793 
    127 H127      -81.9624   29.4476  -75.0871 H         1 UNK         0.2896 
@<TRIPOS>BOND
     1    1    2 1    
     2    1   67 1    
     3    1   68 1    
     4    1   69 1    
     5    2    3 2    
     6    2    4 am   BACKBONE|DICT|INTERRES
     7    4    5 1    
     8    4   70 1    
     9    5    6 1    
    10    5   65 1    
    11    5   71 1    
    12    6    7 1    
    13    6   72 1    
    14    6   73 1    
    15    7    8 1    
    16    8    9 1    
    17    8   74 1    
    18    8   75 1    
    19    9   10 ar   
    20    9   14 ar   
    21   10   11 ar   
    22   10   76 1    
    23   11   12 ar   
    24   11   48 1    
    25   12   13 ar   
    26   12   77 1    
    27   13   14 ar   
    28   13   15 1    
    29   14   78 1    
    30   15   16 1    
    31   15   79 1    
    32   15   80 1    
    33   16   17 1    
    34   17   18 1    
    35   17   81 1    
    36   17   82 1    
    37   18   19 1    
    38   18   22 1    
    39   18   83 1    
    40   19   20 am   BACKBONE|DICT|INTERRES
    41   19   21 2    
    42   20   84 1    
    43   20   85 1    
    44   22   23 am   BACKBONE|DICT|INTERRES
    45   22   86 1    
    46   23   24 2    
    47   23   25 1    
    48   25   26 1    
    49   25   27 1    
    50   25   87 1    
    51   26   88 1    
    52   26   89 1    
    53   26   90 1    
    54   27   28 am   BACKBONE|DICT|INTERRES
    55   27   91 1    
    56   28   29 2    
    57   28   30 1    
    58   30   31 1    
    59   30   32 1    
    60   30   92 1    
    61   31   93 1    
    62   31   94 1    
    63   31   95 1    
    64   32   33 am   BACKBONE|DICT|INTERRES
    65   32   96 1    
    66   33   34 2    
    67   33   35 1    
    68   35   36 1    
    69   35   37 1    
    70   35   97 1    
    71   36   98 1    
    72   36   99 1    
    73   36  100 1    
    74   37   38 am   BACKBONE|DICT|INTERRES
    75   37  101 1    
    76   38   39 2    
    77   38   40 1    
    78   40   41 1    
    79   40   42 1    
    80   40  102 1    
    81   41  103 1    
    82   41  104 1    
    83   41  105 1    
    84   42   43 am   BACKBONE|DICT|INTERRES
    85   42  106 1    
    86   43   44 2    
    87   43   45 1    
    88   45   46 1    
    89   45   49 1    
    90   45  107 1    
    91   46   47 1    
    92   46  108 1    
    93   46  109 1    
    94   47   48 1    
    95   48  110 1    
    96   48  111 1    
    97   49   50 am   BACKBONE|DICT|INTERRES
    98   49  112 1    
    99   50   51 2    
   100   50   52 1    
   101   52   53 1    
   102   52   54 1    
   103   52  113 1    
   104   53  114 1    
   105   53  115 1    
   106   53  116 1    
   107   54   55 am   BACKBONE|DICT|INTERRES
   108   54  117 1    
   109   55   56 2    
   110   55   57 1    
   111   57   58 1    
   112   57   59 1    
   113   57  118 1    
   114   58  119 1    
   115   58  120 1    
   116   58  121 1    
   117   59   60 am   BACKBONE|DICT|INTERRES
   118   59  122 1    
   119   60   61 2    
   120   60   62 1    
   121   62   63 1    
   122   62   64 1    
   123   62  123 1    
   124   63  124 1    
   125   63  125 1    
   126   63  126 1    
   127   64   65 am   BACKBONE|DICT|INTERRES
   128   64  127 1    
   129   65   66 2    
@<TRIPOS>SUBSTRUCTURE
     1 UNK         1 GROUP             0       ****    0 ROOT    
