@<TRIPOS>MOLECULE
3R135
127   129    1
SMALL
USER_CHARGES


@<TRIPOS>ATOM
      1 CA        -78.0854   28.0895  -75.6252 C.3       0 UNK        -0.1998 
      2 C         -79.0481   27.4276  -74.6579 C.2       0 UNK         0.4909 
      3 O         -78.9282   26.2280  -74.3980 O.2       0 UNK        -0.5240 
      4 N         -80.0033   28.2004  -74.1292 N.am      1 UNK        -0.4739 
      5 CA        -81.0685   27.7278  -73.2426 C.3       1 UNK         0.0864 
      6 C6        -81.8273   28.8879  -72.5496 C.3       11 UNK        -0.0881 
      7 S7        -80.7456   30.1539  -71.7957 S.3       11 UNK        -0.2682 
      8 C8        -80.1610   29.3340  -70.2797 C.3       11 UNK         0.0289 
      9 C9        -78.7019   28.9141  -70.3995 C.ar      11 UNK        -0.0687 
     10 C10       -78.3612   27.5843  -70.6603 C.ar      11 UNK        -0.0823 
     11 C11       -77.0229   27.1879  -70.7415 C.ar      11 UNK        -0.0830 
     12 C12       -76.0184   28.1416  -70.5263 C.ar      11 UNK        -0.1021 
     13 C13       -76.3417   29.4791  -70.2735 C.ar      11 UNK        -0.0753 
     14 C14       -77.6865   29.8573  -70.2157 C.ar      11 UNK        -0.0933 
     15 C15       -75.2512   30.5113  -70.0009 C.3       11 UNK         0.0166 
     16 S16       -73.8993   30.5046  -71.2255 S.3       11 UNK        -0.2615 
     17 C17       -74.7327   31.1017  -72.7384 C.3       11 UNK        -0.0865 
     18 CA        -74.6118   30.0975  -73.9216 C.3       10 UNK         0.0862 
     19 C         -75.4303   30.5248  -75.1766 C.2       10 UNK         0.5551 
     20 N         -75.2345   29.8662  -76.3120 N.am      10 UNK        -0.7319 
     21 O         -76.2503   31.4386  -75.1275 O.2       10 UNK        -0.5018 
     22 N         -73.2131   29.7430  -74.2289 N.am      10 UNK        -0.4509 
     23 C         -72.2854   30.5605  -74.7418 C.2       10 UNK         0.4899 
     24 O         -72.5062   31.7289  -75.0630 O.2       10 UNK        -0.4839 
     25 CA        -70.8559   30.0143  -74.9260 C.3       9 UNK         0.0222 
     26 CB        -69.9931   30.3398  -73.6909 C.3       9 UNK        -0.1966 
     27 N         -70.7386   28.5943  -75.2930 N.am      9 UNK        -0.4218 
     28 C         -71.0468   27.5003  -74.5848 C.2       9 UNK         0.5020 
     29 O         -71.6016   27.5291  -73.4855 O.2       9 UNK        -0.5274 
     30 CA        -70.6757   26.1477  -75.2273 C.3       8 UNK         0.0270 
     31 CB        -70.9670   24.9555  -74.2955 C.3       8 UNK        -0.1976 
     32 N         -71.3566   25.9232  -76.5045 N.am      8 UNK        -0.4313 
     33 C         -71.0742   26.5194  -77.6720 C.2       8 UNK         0.5041 
     34 O         -70.1820   27.3565  -77.8158 O.2       8 UNK        -0.5577 
     35 CA        -71.9747   26.1484  -78.8555 C.3       7 UNK         0.0284 
     36 CB        -71.6128   24.7418  -79.3780 C.3       7 UNK        -0.1958 
     37 N         -73.3650   26.2405  -78.4106 N.am      7 UNK        -0.4454 
     38 C         -74.4877   25.9737  -79.0820 C.2       7 UNK         0.5089 
     39 O         -74.5156   25.5771  -80.2478 O.2       7 UNK        -0.5125 
     40 CA        -75.8045   26.1943  -78.3003 C.3       6 UNK         0.0408 
     41 CB        -77.0375   25.6672  -79.0577 C.3       6 UNK        -0.1791 
     42 N         -75.7966   25.6134  -76.9492 N.am      6 UNK        -0.4762 
     43 C         -75.1244   26.0764  -75.8839 C.2       6 UNK         0.5007 
     44 O         -74.3859   27.0622  -75.9425 O.2       6 UNK        -0.5032 
     45 CA        -75.2895   25.3218  -74.5496 C.3       5 UNK         0.0783 
     46 C46       -75.1692   26.2729  -73.3337 C.3       11 UNK        -0.0857 
     47 S47       -75.0713   25.3782  -71.7489 S.3       11 UNK        -0.2512 
     48 C48       -76.7168   25.7173  -71.0340 C.3       11 UNK         0.0225 
     49 N         -76.5484   24.5676  -74.5336 N.am      5 UNK        -0.4615 
     50 C         -76.6400   23.2321  -74.5263 C.2       4 UNK         0.5053 
     51 O         -75.6697   22.4762  -74.5716 O.2       4 UNK        -0.5105 
     52 CA        -78.0520   22.6337  -74.4746 C.3       4 UNK         0.0263 
     53 CB        -78.5317   22.4992  -73.0203 C.3       4 UNK        -0.1981 
     54 N         -79.0172   23.4385  -75.2219 N.am      4 UNK        -0.4224 
     55 C         -79.3155   23.2748  -76.5168 C.2       3 UNK         0.4895 
     56 O         -78.7595   22.4495  -77.2432 O.2       3 UNK        -0.5091 
     57 CA        -80.4195   24.1878  -77.0943 C.3       3 UNK         0.0250 
     58 CB        -81.1103   23.5775  -78.3316 C.3       3 UNK        -0.1996 
     59 N         -81.4152   24.6135  -76.0999 N.am      3 UNK        -0.4254 
     60 C         -82.2148   23.8461  -75.3414 C.2       2 UNK         0.5004 
     61 O         -82.2728   22.6190  -75.4336 O.2       2 UNK        -0.5226 
     62 CA        -83.0584   24.5772  -74.2706 C.3       2 UNK         0.0269 
     63 CB        -83.6589   23.6107  -73.2318 C.3       2 UNK        -0.1926 
     64 N         -82.2863   25.6088  -73.5630 N.am      2 UNK        -0.4687 
     65 C         -82.0357   26.8341  -74.0416 C.2       1 UNK         0.5165 
     66 O         -82.4943   27.2451  -75.1102 O.2       1 UNK        -0.5079 
     67 H67       -78.3611   29.1227  -75.8356 H         1 UNK         0.0900 
     68 H68       -78.0630   27.5454  -76.5681 H         1 UNK         0.0900 
     69 H69       -77.0851   28.0869  -75.2005 H         1 UNK         0.0900 
     70 H70       -80.0516   29.1785  -74.3752 H         1 UNK         0.2959 
     71 H71       -80.6038   27.1170  -72.4693 H         1 UNK         0.1079 
     72 H72       -82.4613   29.4083  -73.2708 H         1 UNK         0.0837 
     73 H73       -82.5043   28.4998  -71.7862 H         1 UNK         0.0837 
     74 H74       -80.2685   30.0282  -69.4449 H         1 UNK         0.0685 
     75 H75       -80.7928   28.4773  -70.0407 H         1 UNK         0.0685 
     76 H76       -79.1402   26.8468  -70.7873 H         1 UNK         0.1434 
     77 H77       -74.9775   27.8517  -70.5530 H         1 UNK         0.1329 
     78 H78       -77.9491   30.8855  -70.0068 H         1 UNK         0.1335 
     79 H79       -75.6702   31.5176  -69.9509 H         1 UNK         0.0680 
     80 H80       -74.8259   30.3084  -69.0172 H         1 UNK         0.0680 
     81 H81       -74.3061   32.0682  -73.0115 H         1 UNK         0.1032 
     82 H82       -75.7837   31.2915  -72.5129 H         1 UNK         0.1032 
     83 H83       -75.0840   29.1740  -73.5901 H         1 UNK         0.0461 
     84 H84       -74.6273   29.0561  -76.3216 H         1 UNK         0.3453 
     85 H85       -75.7433   30.1355  -77.1377 H         1 UNK         0.3453 
     86 H86       -72.9109   28.8116  -73.9582 H         1 UNK         0.2984 
     87 H87       -70.4298   30.5587  -75.7703 H         1 UNK         0.0554 
     88 H88       -68.9556   30.0407  -73.8393 H         1 UNK         0.0847 
     89 H89       -70.3629   29.8407  -72.7944 H         1 UNK         0.0847 
     90 H90       -69.9954   31.4112  -73.4861 H         1 UNK         0.0847 
     91 H91       -70.3629   28.4175  -76.2230 H         1 UNK         0.3141 
     92 H92       -69.5994   26.1667  -75.4122 H         1 UNK         0.0743 
     93 H93       -72.0277   24.8779  -74.0551 H         1 UNK         0.0784 
     94 H94       -70.6519   24.0127  -74.7431 H         1 UNK         0.0784 
     95 H95       -70.4289   25.0587  -73.3522 H         1 UNK         0.0784 
     96 H96       -72.1048   25.2467  -76.4922 H         1 UNK         0.3213 
     97 H97       -71.8176   26.8801  -79.6504 H         1 UNK         0.0855 
     98 H98       -70.5432   24.6636  -79.5782 H         1 UNK         0.0814 
     99 H99       -72.1236   24.5153  -80.3135 H         1 UNK         0.0814 
    100 H100      -71.8689   23.9615  -78.6607 H         1 UNK         0.0814 
    101 H101      -73.4978   26.6254  -77.4764 H         1 UNK         0.3105 
    102 H102      -75.9232   27.2751  -78.1986 H         1 UNK         0.0547 
    103 H103      -77.1062   26.1067  -80.0538 H         1 UNK         0.0837 
    104 H104      -77.0038   24.5839  -79.1800 H         1 UNK         0.0837 
    105 H105      -77.9601   25.9194  -78.5372 H         1 UNK         0.0837 
    106 H106      -76.3421   24.7728  -76.8230 H         1 UNK         0.3020 
    107 H107      -74.4429   24.6338  -74.5071 H         1 UNK         0.1245 
    108 H108      -76.0019   26.9766  -73.3148 H         1 UNK         0.0781 
    109 H109      -74.2611   26.8744  -73.3973 H         1 UNK         0.0781 
    110 H110      -76.8141   25.1517  -70.1067 H         1 UNK         0.0836 
    111 H111      -77.4660   25.3210  -71.7200 H         1 UNK         0.0836 
    112 H112      -77.4016   25.1211  -74.4977 H         1 UNK         0.3022 
    113 H113      -78.0039   21.6313  -74.9061 H         1 UNK         0.0747 
    114 H114      -79.4843   21.9714  -72.9690 H         1 UNK         0.0793 
    115 H115      -77.8156   21.9348  -72.4212 H         1 UNK         0.0793 
    116 H116      -78.6648   23.4707  -72.5450 H         1 UNK         0.0793 
    117 H117      -79.4466   24.2133  -74.7296 H         1 UNK         0.3047 
    118 H118      -79.9140   25.0989  -77.4153 H         1 UNK         0.0822 
    119 H119      -81.8695   24.2483  -78.7337 H         1 UNK         0.0807 
    120 H120      -81.5917   22.6275  -78.0973 H         1 UNK         0.0807 
    121 H121      -80.3915   23.3896  -79.1303 H         1 UNK         0.0807 
    122 H122      -81.4761   25.6135  -75.9439 H         1 UNK         0.2946 
    123 H123      -83.8888   25.0526  -74.7983 H         1 UNK         0.1144 
    124 H124      -84.3001   22.8689  -73.7102 H         1 UNK         0.0793 
    125 H125      -84.2726   24.1414  -72.5037 H         1 UNK         0.0793 
    126 H126      -82.8832   23.0700  -72.6882 H         1 UNK         0.0793 
    127 H127      -81.8532   25.3226  -72.6965 H         1 UNK         0.2896 
@<TRIPOS>BOND
     1    1    2 1    
     2    1   67 1    
     3    1   68 1    
     4    1   69 1    
     5    2    3 2    
     6    2    4 am   BACKBONE|DICT|INTERRES
     7    4    5 1    
     8    4   70 1    
     9    5    6 1    
    10    5   65 1    
    11    5   71 1    
    12    6    7 1    
    13    6   72 1    
    14    6   73 1    
    15    7    8 1    
    16    8    9 1    
    17    8   74 1    
    18    8   75 1    
    19    9   10 ar   
    20    9   14 ar   
    21   10   11 ar   
    22   10   76 1    
    23   11   12 ar   
    24   11   48 1    
    25   12   13 ar   
    26   12   77 1    
    27   13   14 ar   
    28   13   15 1    
    29   14   78 1    
    30   15   16 1    
    31   15   79 1    
    32   15   80 1    
    33   16   17 1    
    34   17   18 1    
    35   17   81 1    
    36   17   82 1    
    37   18   19 1    
    38   18   22 1    
    39   18   83 1    
    40   19   20 am   BACKBONE|DICT|INTERRES
    41   19   21 2    
    42   20   84 1    
    43   20   85 1    
    44   22   23 am   BACKBONE|DICT|INTERRES
    45   22   86 1    
    46   23   24 2    
    47   23   25 1    
    48   25   26 1    
    49   25   27 1    
    50   25   87 1    
    51   26   88 1    
    52   26   89 1    
    53   26   90 1    
    54   27   28 am   BACKBONE|DICT|INTERRES
    55   27   91 1    
    56   28   29 2    
    57   28   30 1    
    58   30   31 1    
    59   30   32 1    
    60   30   92 1    
    61   31   93 1    
    62   31   94 1    
    63   31   95 1    
    64   32   33 am   BACKBONE|DICT|INTERRES
    65   32   96 1    
    66   33   34 2    
    67   33   35 1    
    68   35   36 1    
    69   35   37 1    
    70   35   97 1    
    71   36   98 1    
    72   36   99 1    
    73   36  100 1    
    74   37   38 am   BACKBONE|DICT|INTERRES
    75   37  101 1    
    76   38   39 2    
    77   38   40 1    
    78   40   41 1    
    79   40   42 1    
    80   40  102 1    
    81   41  103 1    
    82   41  104 1    
    83   41  105 1    
    84   42   43 am   BACKBONE|DICT|INTERRES
    85   42  106 1    
    86   43   44 2    
    87   43   45 1    
    88   45   46 1    
    89   45   49 1    
    90   45  107 1    
    91   46   47 1    
    92   46  108 1    
    93   46  109 1    
    94   47   48 1    
    95   48  110 1    
    96   48  111 1    
    97   49   50 am   BACKBONE|DICT|INTERRES
    98   49  112 1    
    99   50   51 2    
   100   50   52 1    
   101   52   53 1    
   102   52   54 1    
   103   52  113 1    
   104   53  114 1    
   105   53  115 1    
   106   53  116 1    
   107   54   55 am   BACKBONE|DICT|INTERRES
   108   54  117 1    
   109   55   56 2    
   110   55   57 1    
   111   57   58 1    
   112   57   59 1    
   113   57  118 1    
   114   58  119 1    
   115   58  120 1    
   116   58  121 1    
   117   59   60 am   BACKBONE|DICT|INTERRES
   118   59  122 1    
   119   60   61 2    
   120   60   62 1    
   121   62   63 1    
   122   62   64 1    
   123   62  123 1    
   124   63  124 1    
   125   63  125 1    
   126   63  126 1    
   127   64   65 am   BACKBONE|DICT|INTERRES
   128   64  127 1    
   129   65   66 2    
@<TRIPOS>SUBSTRUCTURE
     1 UNK         1 GROUP             0       ****    0 ROOT    
