@<TRIPOS>MOLECULE
3R135
127   129    1
SMALL
USER_CHARGES


@<TRIPOS>ATOM
      1 CA        -79.6611   30.7561  -75.8827 C.3       0 UNK        -0.1998 
      2 C         -79.7365   29.5308  -74.9847 C.2       0 UNK         0.4909 
      3 O         -78.7738   28.7703  -74.9124 O.2       0 UNK        -0.5240 
      4 N         -80.8688   29.3416  -74.2962 N.am      1 UNK        -0.4739 
      5 CA        -81.1202   28.2020  -73.4076 C.3       1 UNK         0.0864 
      6 C6        -82.2987   28.4639  -72.4332 C.3       11 UNK        -0.0881 
      7 S7        -82.1673   30.0373  -71.5164 S.3       11 UNK        -0.2682 
      8 C8        -81.3514   29.5172  -69.9744 C.3       11 UNK         0.0289 
      9 C9        -79.8787   29.1969  -70.1867 C.ar      11 UNK        -0.0687 
     10 C10       -79.4084   27.8875  -70.0361 C.ar      11 UNK        -0.0823 
     11 C11       -78.0516   27.6033  -70.2147 C.ar      11 UNK        -0.0830 
     12 C12       -77.1648   28.6402  -70.5066 C.ar      11 UNK        -0.1021 
     13 C13       -77.6256   29.9407  -70.7189 C.ar      11 UNK        -0.0753 
     14 C14       -78.9849   30.2154  -70.5389 C.ar      11 UNK        -0.0933 
     15 C15       -76.6631   31.0387  -71.1608 C.3       11 UNK         0.0166 
     16 S16       -75.8659   30.6574  -72.7632 S.3       11 UNK        -0.2615 
     17 C17       -74.4247   29.6581  -72.2450 C.3       11 UNK        -0.0865 
     18 CA        -73.1161   30.0863  -72.9582 C.3       10 UNK         0.0862 
     19 C         -71.8546   29.6557  -72.1463 C.2       10 UNK         0.5551 
     20 N         -70.8955   28.9268  -72.7039 N.am      10 UNK        -0.7319 
     21 O         -71.7371   30.0048  -70.9742 O.2       10 UNK        -0.5018 
     22 N         -73.1160   29.6535  -74.3650 N.am      10 UNK        -0.4509 
     23 C         -72.3773   30.2102  -75.3325 C.2       10 UNK         0.4899 
     24 O         -71.7015   31.2292  -75.1778 O.2       10 UNK        -0.4839 
     25 CA        -72.3748   29.4781  -76.6892 C.3       9 UNK         0.0222 
     26 CB        -71.2894   29.9982  -77.6547 C.3       9 UNK        -0.1966 
     27 N         -72.2801   28.0195  -76.5462 N.am      9 UNK        -0.4218 
     28 C         -71.3241   27.3175  -75.9160 C.2       9 UNK         0.5020 
     29 O         -70.3433   27.8338  -75.3794 O.2       9 UNK        -0.5274 
     30 CA        -71.4920   25.7879  -75.8196 C.3       8 UNK         0.0270 
     31 CB        -71.7687   25.3743  -74.3639 C.3       8 UNK        -0.1976 
     32 N         -72.5540   25.2547  -76.6759 N.am      8 UNK        -0.4313 
     33 C         -72.4731   25.1353  -78.0081 C.2       8 UNK         0.5041 
     34 O         -71.4534   25.3720  -78.6568 O.2       8 UNK        -0.5577 
     35 CA        -73.7602   24.7287  -78.7458 C.3       7 UNK         0.0284 
     36 CB        -73.9055   23.1992  -78.7761 C.3       7 UNK        -0.1958 
     37 N         -74.9665   25.3371  -78.1710 N.am      7 UNK        -0.4454 
     38 C         -75.2072   26.6571  -78.1308 C.2       7 UNK         0.5089 
     39 O         -74.4552   27.5021  -78.6146 O.2       7 UNK        -0.5125 
     40 CA        -76.4632   27.1245  -77.3805 C.3       6 UNK         0.0408 
     41 CB        -77.7207   26.9562  -78.2465 C.3       6 UNK        -0.1791 
     42 N         -76.6460   26.4253  -76.1116 N.am      6 UNK        -0.4762 
     43 C         -75.8390   26.5194  -75.0447 C.2       6 UNK         0.5007 
     44 O         -74.8412   27.2416  -74.9879 O.2       6 UNK        -0.5032 
     45 CA        -76.1963   25.6074  -73.8540 C.3       5 UNK         0.0783 
     46 C46       -77.3322   26.2501  -73.0220 C.3       11 UNK        -0.0857 
     47 S47       -77.9458   25.2168  -71.6405 S.3       11 UNK        -0.2512 
     48 C48       -77.5310   26.1751  -70.1434 C.3       11 UNK         0.0225 
     49 N         -76.5291   24.2539  -74.3101 N.am      5 UNK        -0.4615 
     50 C         -75.6788   23.4106  -74.9098 C.2       4 UNK         0.5053 
     51 O         -74.4968   23.6716  -75.1308 O.2       4 UNK        -0.5105 
     52 CA        -76.2544   22.0604  -75.3699 C.3       4 UNK         0.0263 
     53 CB        -76.2863   21.0619  -74.2020 C.3       4 UNK        -0.1981 
     54 N         -77.5954   22.1840  -75.9479 N.am      4 UNK        -0.4224 
     55 C         -77.8679   22.8191  -77.0973 C.2       3 UNK         0.4895 
     56 O         -77.0112   23.3253  -77.8205 O.2       3 UNK        -0.5091 
     57 CA        -79.3530   22.9629  -77.4771 C.3       3 UNK         0.0250 
     58 CB        -79.8545   21.6981  -78.1919 C.3       3 UNK        -0.1996 
     59 N         -80.2297   23.2706  -76.3390 N.am      3 UNK        -0.4254 
     60 C         -80.0804   24.3312  -75.5326 C.2       2 UNK         0.5004 
     61 O         -79.1656   25.1470  -75.6549 O.2       2 UNK        -0.5226 
     62 CA        -81.0854   24.4675  -74.3741 C.3       2 UNK         0.0269 
     63 CB        -80.8720   23.3538  -73.3337 C.3       2 UNK        -0.1926 
     64 N         -80.9715   25.7670  -73.7033 N.am      2 UNK        -0.4687 
     65 C         -81.3939   26.9248  -74.2287 C.2       1 UNK         0.5165 
     66 O         -82.0256   27.0017  -75.2870 O.2       1 UNK        -0.5079 
     67 H67       -80.5767   31.3460  -75.8465 H         1 UNK         0.0900 
     68 H68       -78.8330   31.3937  -75.5740 H         1 UNK         0.0900 
     69 H69       -79.4915   30.4526  -76.9155 H         1 UNK         0.0900 
     70 H70       -81.6347   29.9913  -74.3973 H         1 UNK         0.2959 
     71 H71       -80.2141   28.0399  -72.8196 H         1 UNK         0.1079 
     72 H72       -82.3933   27.6429  -71.7198 H         1 UNK         0.0837 
     73 H73       -83.2431   28.4922  -72.9808 H         1 UNK         0.0837 
     74 H74       -81.4335   30.3257  -69.2467 H         1 UNK         0.0685 
     75 H75       -81.8844   28.6670  -69.5457 H         1 UNK         0.0685 
     76 H76       -80.0957   27.0876  -69.7964 H         1 UNK         0.1434 
     77 H77       -76.1178   28.4127  -70.6275 H         1 UNK         0.1329 
     78 H78       -79.3561   31.2206  -70.6847 H         1 UNK         0.1335 
     79 H79       -77.1987   31.9827  -71.2717 H         1 UNK         0.0680 
     80 H80       -75.9129   31.2088  -70.3877 H         1 UNK         0.0680 
     81 H81       -74.3168   29.7522  -71.1634 H         1 UNK         0.1032 
     82 H82       -74.6329   28.6041  -72.4364 H         1 UNK         0.1032 
     83 H83       -73.0861   31.1777  -72.9512 H         1 UNK         0.0461 
     84 H84       -70.9258   28.6602  -73.6817 H         1 UNK         0.3453 
     85 H85       -70.0941   28.6747  -72.1483 H         1 UNK         0.3453 
     86 H86       -73.6532   28.8183  -74.5798 H         1 UNK         0.2984 
     87 H87       -73.3462   29.6771  -77.1440 H         1 UNK         0.0554 
     88 H88       -71.4217   31.0618  -77.8567 H         1 UNK         0.0847 
     89 H89       -71.3315   29.4797  -78.6126 H         1 UNK         0.0847 
     90 H90       -70.2871   29.8666  -77.2455 H         1 UNK         0.0847 
     91 H91       -73.0548   27.5037  -76.9458 H         1 UNK         0.3141 
     92 H92       -70.5456   25.3386  -76.1273 H         1 UNK         0.0743 
     93 H93       -72.7037   25.7974  -73.9955 H         1 UNK         0.0784 
     94 H94       -71.8302   24.2905  -74.2643 H         1 UNK         0.0784 
     95 H95       -70.9731   25.7152  -73.6999 H         1 UNK         0.0784 
     96 H96       -73.4069   24.9564  -76.2100 H         1 UNK         0.3213 
     97 H97       -73.6733   25.0820  -79.7755 H         1 UNK         0.0855 
     98 H98       -74.0343   22.7861  -77.7755 H         1 UNK         0.0814 
     99 H99       -73.0217   22.7312  -79.2118 H         1 UNK         0.0814 
    100 H100      -74.7621   22.8943  -79.3773 H         1 UNK         0.0814 
    101 H101      -75.6700   24.6991  -77.8057 H         1 UNK         0.3105 
    102 H102      -76.3460   28.1868  -77.1560 H         1 UNK         0.0547 
    103 H103      -77.6237   27.5003  -79.1867 H         1 UNK         0.0837 
    104 H104      -77.9077   25.9100  -78.4897 H         1 UNK         0.0837 
    105 H105      -78.6035   27.3419  -77.7353 H         1 UNK         0.0837 
    106 H106      -77.4848   25.8534  -76.0230 H         1 UNK         0.3020 
    107 H107      -75.3087   25.5321  -73.2222 H         1 UNK         0.1245 
    108 H108      -76.9972   27.2190  -72.6595 H         1 UNK         0.0781 
    109 H109      -78.1909   26.4699  -73.6559 H         1 UNK         0.0781 
    110 H110      -77.9560   25.6746  -69.2722 H         1 UNK         0.0836 
    111 H111      -76.4490   26.1624  -70.0032 H         1 UNK         0.0836 
    112 H112      -77.4956   23.9840  -74.2082 H         1 UNK         0.3022 
    113 H113      -75.5910   21.6623  -76.1405 H         1 UNK         0.0747 
    114 H114      -76.6172   20.0767  -74.5313 H         1 UNK         0.0793 
    115 H115      -75.2929   20.9397  -73.7679 H         1 UNK         0.0793 
    116 H116      -76.9523   21.3914  -73.4034 H         1 UNK         0.0793 
    117 H117      -78.3629   21.7967  -75.4191 H         1 UNK         0.3047 
    118 H118      -79.4264   23.7989  -78.1759 H         1 UNK         0.0822 
    119 H119      -80.8705   21.8291  -78.5649 H         1 UNK         0.0807 
    120 H120      -79.8474   20.8290  -77.5330 H         1 UNK         0.0807 
    121 H121      -79.2252   21.4608  -79.0511 H         1 UNK         0.0807 
    122 H122      -80.9994   22.6370  -76.1767 H         1 UNK         0.2946 
    123 H123      -82.0927   24.3781  -74.7876 H         1 UNK         0.1144 
    124 H124      -81.5532   23.4637  -72.4896 H         1 UNK         0.0793 
    125 H125      -79.8544   23.3514  -72.9432 H         1 UNK         0.0793 
    126 H126      -81.0558   22.3686  -73.7637 H         1 UNK         0.0793 
    127 H127      -80.4364   25.7810  -72.8467 H         1 UNK         0.2896 
@<TRIPOS>BOND
     1    1    2 1    
     2    1   67 1    
     3    1   68 1    
     4    1   69 1    
     5    2    3 2    
     6    2    4 am   BACKBONE|DICT|INTERRES
     7    4    5 1    
     8    4   70 1    
     9    5    6 1    
    10    5   65 1    
    11    5   71 1    
    12    6    7 1    
    13    6   72 1    
    14    6   73 1    
    15    7    8 1    
    16    8    9 1    
    17    8   74 1    
    18    8   75 1    
    19    9   10 ar   
    20    9   14 ar   
    21   10   11 ar   
    22   10   76 1    
    23   11   12 ar   
    24   11   48 1    
    25   12   13 ar   
    26   12   77 1    
    27   13   14 ar   
    28   13   15 1    
    29   14   78 1    
    30   15   16 1    
    31   15   79 1    
    32   15   80 1    
    33   16   17 1    
    34   17   18 1    
    35   17   81 1    
    36   17   82 1    
    37   18   19 1    
    38   18   22 1    
    39   18   83 1    
    40   19   20 am   BACKBONE|DICT|INTERRES
    41   19   21 2    
    42   20   84 1    
    43   20   85 1    
    44   22   23 am   BACKBONE|DICT|INTERRES
    45   22   86 1    
    46   23   24 2    
    47   23   25 1    
    48   25   26 1    
    49   25   27 1    
    50   25   87 1    
    51   26   88 1    
    52   26   89 1    
    53   26   90 1    
    54   27   28 am   BACKBONE|DICT|INTERRES
    55   27   91 1    
    56   28   29 2    
    57   28   30 1    
    58   30   31 1    
    59   30   32 1    
    60   30   92 1    
    61   31   93 1    
    62   31   94 1    
    63   31   95 1    
    64   32   33 am   BACKBONE|DICT|INTERRES
    65   32   96 1    
    66   33   34 2    
    67   33   35 1    
    68   35   36 1    
    69   35   37 1    
    70   35   97 1    
    71   36   98 1    
    72   36   99 1    
    73   36  100 1    
    74   37   38 am   BACKBONE|DICT|INTERRES
    75   37  101 1    
    76   38   39 2    
    77   38   40 1    
    78   40   41 1    
    79   40   42 1    
    80   40  102 1    
    81   41  103 1    
    82   41  104 1    
    83   41  105 1    
    84   42   43 am   BACKBONE|DICT|INTERRES
    85   42  106 1    
    86   43   44 2    
    87   43   45 1    
    88   45   46 1    
    89   45   49 1    
    90   45  107 1    
    91   46   47 1    
    92   46  108 1    
    93   46  109 1    
    94   47   48 1    
    95   48  110 1    
    96   48  111 1    
    97   49   50 am   BACKBONE|DICT|INTERRES
    98   49  112 1    
    99   50   51 2    
   100   50   52 1    
   101   52   53 1    
   102   52   54 1    
   103   52  113 1    
   104   53  114 1    
   105   53  115 1    
   106   53  116 1    
   107   54   55 am   BACKBONE|DICT|INTERRES
   108   54  117 1    
   109   55   56 2    
   110   55   57 1    
   111   57   58 1    
   112   57   59 1    
   113   57  118 1    
   114   58  119 1    
   115   58  120 1    
   116   58  121 1    
   117   59   60 am   BACKBONE|DICT|INTERRES
   118   59  122 1    
   119   60   61 2    
   120   60   62 1    
   121   62   63 1    
   122   62   64 1    
   123   62  123 1    
   124   63  124 1    
   125   63  125 1    
   126   63  126 1    
   127   64   65 am   BACKBONE|DICT|INTERRES
   128   64  127 1    
   129   65   66 2    
@<TRIPOS>SUBSTRUCTURE
     1 UNK         1 GROUP             0       ****    0 ROOT    
