@<TRIPOS>MOLECULE
3R135
127   129    1
SMALL
USER_CHARGES


@<TRIPOS>ATOM
      1 CA        -80.3410   31.6045  -73.9000 C.3       0 UNK        -0.1998 
      2 C         -79.7216   30.2163  -73.9285 C.2       0 UNK         0.4909 
      3 O         -78.5660   30.0694  -74.3269 O.2       0 UNK        -0.5240 
      4 N         -80.4803   29.1934  -73.5145 N.am      1 UNK        -0.4739 
      5 CA        -80.0475   27.7930  -73.4250 C.3       1 UNK         0.0864 
      6 C6        -80.8730   26.9869  -72.3802 C.3       11 UNK        -0.0881 
      7 S7        -81.0802   27.8251  -70.7691 S.3       11 UNK        -0.2682 
      8 C8        -79.6770   27.1757  -69.8039 C.3       11 UNK         0.0289 
      9 C9        -78.3333   27.6021  -70.3794 C.ar      11 UNK        -0.0687 
     10 C10       -77.3823   26.6406  -70.7331 C.ar      11 UNK        -0.0823 
     11 C11       -76.1567   27.0248  -71.2859 C.ar      11 UNK        -0.0830 
     12 C12       -75.8920   28.3813  -71.4950 C.ar      11 UNK        -0.1021 
     13 C13       -76.8363   29.3534  -71.1480 C.ar      11 UNK        -0.0753 
     14 C14       -78.0459   28.9574  -70.5726 C.ar      11 UNK        -0.0933 
     15 C15       -76.5847   30.8217  -71.4580 C.3       11 UNK         0.0166 
     16 S16       -75.1243   31.4832  -70.5912 S.3       11 UNK        -0.2615 
     17 C17       -74.6921   32.8663  -71.7126 C.3       11 UNK        -0.0865 
     18 CA        -73.5852   32.5274  -72.7535 C.3       10 UNK         0.0862 
     19 C         -72.1574   32.6329  -72.1512 C.2       10 UNK         0.5551 
     20 N         -71.6390   33.8451  -72.0080 N.am      10 UNK        -0.7319 
     21 O         -71.5274   31.6405  -71.7895 O.2       10 UNK        -0.5018 
     22 N         -73.8275   31.2215  -73.3757 N.am      10 UNK        -0.4509 
     23 C         -73.4728   30.8494  -74.6067 C.2       10 UNK         0.4899 
     24 O         -72.9841   31.6066  -75.4487 O.2       10 UNK        -0.4839 
     25 CA        -73.7767   29.3795  -74.9486 C.3       9 UNK         0.0222 
     26 CB        -75.2665   29.1996  -75.2894 C.3       9 UNK        -0.1966 
     27 N         -72.9799   28.8562  -76.0573 N.am      9 UNK        -0.4218 
     28 C         -71.6495   28.7176  -76.0858 C.2       9 UNK         0.5020 
     29 O         -70.8979   29.0212  -75.1568 O.2       9 UNK        -0.5274 
     30 CA        -71.0786   28.0601  -77.3579 C.3       8 UNK         0.0270 
     31 CB        -69.5939   28.4043  -77.5800 C.3       8 UNK        -0.1976 
     32 N         -71.2293   26.6038  -77.3018 N.am      8 UNK        -0.4313 
     33 C         -72.3916   25.9450  -77.3946 C.2       8 UNK         0.5041 
     34 O         -73.4696   26.4932  -77.6511 O.2       8 UNK        -0.5577 
     35 CA        -72.3470   24.4314  -77.1416 C.3       7 UNK         0.0284 
     36 CB        -71.7350   24.0979  -75.7641 C.3       7 UNK        -0.1958 
     37 N         -73.7129   23.9257  -77.2054 N.am      7 UNK        -0.4454 
     38 C         -74.0897   22.6572  -77.3883 C.2       7 UNK         0.5089 
     39 O         -73.3021   21.7303  -77.5884 O.2       7 UNK        -0.5125 
     40 CA        -75.6079   22.3937  -77.3172 C.3       6 UNK         0.0408 
     41 CB        -75.9570   20.8951  -77.2057 C.3       6 UNK        -0.1791 
     42 N         -76.2664   23.1606  -76.2511 N.am      6 UNK        -0.4762 
     43 C         -76.0055   23.1172  -74.9328 C.2       6 UNK         0.5007 
     44 O         -75.1665   22.3793  -74.4146 O.2       6 UNK        -0.5032 
     45 CA        -76.8660   24.0318  -74.0395 C.3       5 UNK         0.0783 
     46 C46       -76.4509   25.5216  -74.1316 C.3       11 UNK        -0.0857 
     47 S47       -74.7987   25.8809  -73.4464 S.3       11 UNK        -0.2512 
     48 C48       -75.1196   25.9720  -71.6541 C.3       11 UNK         0.0225 
     49 N         -78.2779   23.8521  -74.3816 N.am      5 UNK        -0.4615 
     50 C         -79.0462   22.8493  -73.9339 C.2       4 UNK         0.5053 
     51 O         -78.6884   22.0554  -73.0640 O.2       4 UNK        -0.5105 
     52 CA        -80.4430   22.6868  -74.5614 C.3       4 UNK         0.0263 
     53 CB        -81.5400   23.1829  -73.6060 C.3       4 UNK        -0.1981 
     54 N         -80.5619   23.3765  -75.8497 N.am      4 UNK        -0.4224 
     55 C         -80.1527   22.8529  -77.0158 C.2       3 UNK         0.4895 
     56 O         -79.7219   21.7056  -77.1329 O.2       3 UNK        -0.5091 
     57 CA        -80.2107   23.7514  -78.2662 C.3       3 UNK         0.0250 
     58 CB        -81.4983   23.4808  -79.0610 C.3       3 UNK        -0.1996 
     59 N         -80.1096   25.1874  -77.9882 N.am      3 UNK        -0.4254 
     60 C         -79.0547   25.7938  -77.4265 C.2       2 UNK         0.5004 
     61 O         -78.0403   25.1944  -77.0711 O.2       2 UNK        -0.5226 
     62 CA        -79.1556   27.3100  -77.1691 C.3       2 UNK         0.0269 
     63 CB        -80.3195   27.9950  -77.9199 C.3       2 UNK        -0.1926 
     64 N         -79.2321   27.6406  -75.7394 N.am      2 UNK        -0.4687 
     65 C         -80.0668   27.1293  -74.8218 C.2       1 UNK         0.5165 
     66 O         -80.8523   26.2085  -75.0566 O.2       1 UNK        -0.5079 
     67 H67       -81.3612   31.5882  -73.5171 H         1 UNK         0.0900 
     68 H68       -79.7501   32.2635  -73.2644 H         1 UNK         0.0900 
     69 H69       -80.3606   32.0263  -74.9045 H         1 UNK         0.0900 
     70 H70       -81.4257   29.3697  -73.2058 H         1 UNK         0.2959 
     71 H71       -79.0072   27.7844  -73.0941 H         1 UNK         0.1079 
     72 H72       -81.8785   26.7897  -72.7570 H         1 UNK         0.0837 
     73 H73       -80.4148   26.0107  -72.2136 H         1 UNK         0.0837 
     74 H74       -79.7562   26.0889  -69.7479 H         1 UNK         0.0685 
     75 H75       -79.7535   27.5443  -68.7802 H         1 UNK         0.0685 
     76 H76       -77.5976   25.5918  -70.5806 H         1 UNK         0.1434 
     77 H77       -74.9523   28.6755  -71.9392 H         1 UNK         0.1329 
     78 H78       -78.7866   29.7006  -70.3109 H         1 UNK         0.1335 
     79 H79       -76.4631   30.9234  -72.5367 H         1 UNK         0.0680 
     80 H80       -77.4511   31.4309  -71.1954 H         1 UNK         0.0680 
     81 H81       -74.4077   33.7285  -71.1063 H         1 UNK         0.1032 
     82 H82       -75.5927   33.1842  -72.2402 H         1 UNK         0.1032 
     83 H83       -73.6454   33.2816  -73.5411 H         1 UNK         0.0461 
     84 H84       -70.7177   33.9392  -71.6093 H         1 UNK         0.3453 
     85 H85       -72.1443   34.6682  -72.2977 H         1 UNK         0.3453 
     86 H86       -74.1957   30.5271  -72.7436 H         1 UNK         0.2984 
     87 H87       -73.5446   28.7699  -74.0729 H         1 UNK         0.0554 
     88 H88       -75.9005   29.4761  -74.4468 H         1 UNK         0.0847 
     89 H89       -75.4978   28.1628  -75.5332 H         1 UNK         0.0847 
     90 H90       -75.5648   29.8176  -76.1372 H         1 UNK         0.0847 
     91 H91       -73.4941   28.4668  -76.8391 H         1 UNK         0.3141 
     92 H92       -71.6396   28.4381  -78.2157 H         1 UNK         0.0743 
     93 H93       -69.4476   29.4846  -77.6191 H         1 UNK         0.0784 
     94 H94       -68.9616   28.0191  -76.7789 H         1 UNK         0.0784 
     95 H95       -69.2285   27.9948  -78.5220 H         1 UNK         0.0784 
     96 H96       -70.3968   26.0803  -77.0726 H         1 UNK         0.3213 
     97 H97       -71.7556   23.9698  -77.9351 H         1 UNK         0.0855 
     98 H98       -72.2780   24.5908  -74.9563 H         1 UNK         0.0814 
     99 H99       -70.6928   24.4104  -75.6988 H         1 UNK         0.0814 
    100 H100      -71.7549   23.0258  -75.5674 H         1 UNK         0.0814 
    101 H101      -74.4172   24.6500  -77.1242 H         1 UNK         0.3105 
    102 H102      -76.0260   22.7599  -78.2559 H         1 UNK         0.0547 
    103 H103      -77.0357   20.7413  -77.1742 H         1 UNK         0.0837 
    104 H104      -75.5275   20.4442  -76.3107 H         1 UNK         0.0837 
    105 H105      -75.5762   20.3401  -78.0637 H         1 UNK         0.0837 
    106 H106      -76.9567   23.8400  -76.5705 H         1 UNK         0.3020 
    107 H107      -76.7208   23.7074  -73.0067 H         1 UNK         0.1245 
    108 H108      -77.1838   26.1459  -73.6217 H         1 UNK         0.0781 
    109 H109      -76.4552   25.8636  -75.1667 H         1 UNK         0.0781 
    110 H110      -74.1837   26.2047  -71.1442 H         1 UNK         0.0836 
    111 H111      -75.4198   24.9863  -71.2960 H         1 UNK         0.0836 
    112 H112      -78.6244   24.4213  -75.1427 H         1 UNK         0.3022 
    113 H113      -80.6024   21.6173  -74.7156 H         1 UNK         0.0747 
    114 H114      -82.5331   22.9985  -74.0158 H         1 UNK         0.0793 
    115 H115      -81.4852   22.6667  -72.6465 H         1 UNK         0.0793 
    116 H116      -81.4553   24.2493  -73.4064 H         1 UNK         0.0793 
    117 H117      -80.8768   24.3423  -75.8192 H         1 UNK         0.3047 
    118 H118      -79.3588   23.4804  -78.8937 H         1 UNK         0.0822 
    119 H119      -81.5094   24.0335  -80.0007 H         1 UNK         0.0807 
    120 H120      -82.3882   23.7595  -78.4951 H         1 UNK         0.0807 
    121 H121      -81.5887   22.4223  -79.3096 H         1 UNK         0.0807 
    122 H122      -80.9152   25.7512  -78.2175 H         1 UNK         0.2946 
    123 H123      -78.2227   27.7375  -77.5405 H         1 UNK         0.1144 
    124 H124      -80.2730   27.7971  -78.9918 H         1 UNK         0.0793 
    125 H125      -80.2749   29.0774  -77.7969 H         1 UNK         0.0793 
    126 H126      -81.2951   27.6678  -77.5583 H         1 UNK         0.0793 
    127 H127      -78.6606   28.4247  -75.4359 H         1 UNK         0.2896 
@<TRIPOS>BOND
     1    1    2 1    
     2    1   67 1    
     3    1   68 1    
     4    1   69 1    
     5    2    3 2    
     6    2    4 am   BACKBONE|DICT|INTERRES
     7    4    5 1    
     8    4   70 1    
     9    5    6 1    
    10    5   65 1    
    11    5   71 1    
    12    6    7 1    
    13    6   72 1    
    14    6   73 1    
    15    7    8 1    
    16    8    9 1    
    17    8   74 1    
    18    8   75 1    
    19    9   10 ar   
    20    9   14 ar   
    21   10   11 ar   
    22   10   76 1    
    23   11   12 ar   
    24   11   48 1    
    25   12   13 ar   
    26   12   77 1    
    27   13   14 ar   
    28   13   15 1    
    29   14   78 1    
    30   15   16 1    
    31   15   79 1    
    32   15   80 1    
    33   16   17 1    
    34   17   18 1    
    35   17   81 1    
    36   17   82 1    
    37   18   19 1    
    38   18   22 1    
    39   18   83 1    
    40   19   20 am   BACKBONE|DICT|INTERRES
    41   19   21 2    
    42   20   84 1    
    43   20   85 1    
    44   22   23 am   BACKBONE|DICT|INTERRES
    45   22   86 1    
    46   23   24 2    
    47   23   25 1    
    48   25   26 1    
    49   25   27 1    
    50   25   87 1    
    51   26   88 1    
    52   26   89 1    
    53   26   90 1    
    54   27   28 am   BACKBONE|DICT|INTERRES
    55   27   91 1    
    56   28   29 2    
    57   28   30 1    
    58   30   31 1    
    59   30   32 1    
    60   30   92 1    
    61   31   93 1    
    62   31   94 1    
    63   31   95 1    
    64   32   33 am   BACKBONE|DICT|INTERRES
    65   32   96 1    
    66   33   34 2    
    67   33   35 1    
    68   35   36 1    
    69   35   37 1    
    70   35   97 1    
    71   36   98 1    
    72   36   99 1    
    73   36  100 1    
    74   37   38 am   BACKBONE|DICT|INTERRES
    75   37  101 1    
    76   38   39 2    
    77   38   40 1    
    78   40   41 1    
    79   40   42 1    
    80   40  102 1    
    81   41  103 1    
    82   41  104 1    
    83   41  105 1    
    84   42   43 am   BACKBONE|DICT|INTERRES
    85   42  106 1    
    86   43   44 2    
    87   43   45 1    
    88   45   46 1    
    89   45   49 1    
    90   45  107 1    
    91   46   47 1    
    92   46  108 1    
    93   46  109 1    
    94   47   48 1    
    95   48  110 1    
    96   48  111 1    
    97   49   50 am   BACKBONE|DICT|INTERRES
    98   49  112 1    
    99   50   51 2    
   100   50   52 1    
   101   52   53 1    
   102   52   54 1    
   103   52  113 1    
   104   53  114 1    
   105   53  115 1    
   106   53  116 1    
   107   54   55 am   BACKBONE|DICT|INTERRES
   108   54  117 1    
   109   55   56 2    
   110   55   57 1    
   111   57   58 1    
   112   57   59 1    
   113   57  118 1    
   114   58  119 1    
   115   58  120 1    
   116   58  121 1    
   117   59   60 am   BACKBONE|DICT|INTERRES
   118   59  122 1    
   119   60   61 2    
   120   60   62 1    
   121   62   63 1    
   122   62   64 1    
   123   62  123 1    
   124   63  124 1    
   125   63  125 1    
   126   63  126 1    
   127   64   65 am   BACKBONE|DICT|INTERRES
   128   64  127 1    
   129   65   66 2    
@<TRIPOS>SUBSTRUCTURE
     1 UNK         1 GROUP             0       ****    0 ROOT    
