@<TRIPOS>MOLECULE
3R135
127   129    1
SMALL
USER_CHARGES


@<TRIPOS>ATOM
      1 CA        -83.2745   23.7516  -72.3440 C.3       0 UNK        -0.1998 
      2 C         -82.7176   24.9643  -73.0716 C.2       0 UNK         0.4909 
      3 O         -81.9079   24.8045  -73.9857 O.2       0 UNK        -0.5240 
      4 N         -83.1702   26.1701  -72.6957 N.am      1 UNK        -0.4739 
      5 CA        -82.7178   27.5094  -73.1286 C.3       1 UNK         0.0864 
      6 C6        -81.2727   27.8436  -72.6682 C.3       11 UNK        -0.0881 
      7 S7        -80.9826   27.6657  -70.8725 S.3       11 UNK        -0.2682 
      8 C8        -79.6774   28.9075  -70.5722 C.3       11 UNK         0.0289 
      9 C9        -78.3602   28.5675  -71.2639 C.ar      11 UNK        -0.0687 
     10 C10       -77.3371   27.9029  -70.5767 C.ar      11 UNK        -0.0823 
     11 C11       -76.1172   27.6274  -71.2080 C.ar      11 UNK        -0.0830 
     12 C12       -75.9422   27.9917  -72.5470 C.ar      11 UNK        -0.1021 
     13 C13       -76.9537   28.6609  -73.2460 C.ar      11 UNK        -0.0753 
     14 C14       -78.1502   28.9546  -72.5902 C.ar      11 UNK        -0.0933 
     15 C15       -76.8064   29.0664  -74.7113 C.3       11 UNK         0.0166 
     16 S16       -75.1070   29.4535  -75.2384 S.3       11 UNK        -0.2615 
     17 C17       -74.7549   30.9950  -74.3223 C.3       11 UNK        -0.0865 
     18 CA        -73.2856   31.0812  -73.8289 C.3       10 UNK         0.0862 
     19 C         -73.0504   30.2673  -72.5206 C.2       10 UNK         0.5551 
     20 N         -72.2107   29.2383  -72.5063 N.am      10 UNK        -0.7319 
     21 O         -73.6266   30.5972  -71.4874 O.2       10 UNK        -0.5018 
     22 N         -72.3477   30.7915  -74.9226 N.am      10 UNK        -0.4509 
     23 C         -71.0560   31.1300  -74.9572 C.2       10 UNK         0.4899 
     24 O         -70.5145   31.8465  -74.1135 O.2       10 UNK        -0.4839 
     25 CA        -70.2387   30.5660  -76.1391 C.3       9 UNK         0.0222 
     26 CB        -68.7221   30.5600  -75.8520 C.3       9 UNK        -0.1966 
     27 N         -70.6707   29.2344  -76.5985 N.am      9 UNK        -0.4218 
     28 C         -70.7597   28.1123  -75.8682 C.2       9 UNK         0.5020 
     29 O         -70.6158   28.0714  -74.6447 O.2       9 UNK        -0.5274 
     30 CA        -71.0571   26.8189  -76.6425 C.3       8 UNK         0.0270 
     31 CB        -70.3676   25.5988  -76.0054 C.3       8 UNK        -0.1976 
     32 N         -72.4939   26.5634  -76.7332 N.am      8 UNK        -0.4313 
     33 C         -73.3154   27.1401  -77.6235 C.2       8 UNK         0.5041 
     34 O         -72.9445   28.0280  -78.3951 O.2       8 UNK        -0.5577 
     35 CA        -74.7791   26.6379  -77.6863 C.3       7 UNK         0.0284 
     36 CB        -75.4045   26.7967  -79.0877 C.3       7 UNK        -0.1958 
     37 N         -74.9640   25.2694  -77.1898 N.am      7 UNK        -0.4454 
     38 C         -74.3651   24.1526  -77.6334 C.2       7 UNK         0.5089 
     39 O         -73.6523   24.1118  -78.6375 O.2       7 UNK        -0.5125 
     40 CA        -74.5671   22.8707  -76.7954 C.3       6 UNK         0.0408 
     41 CB        -73.3536   21.9223  -76.8886 C.3       6 UNK        -0.1791 
     42 N         -74.9050   23.1119  -75.3850 N.am      6 UNK        -0.4762 
     43 C         -74.2270   23.8309  -74.4759 C.2       6 UNK         0.5007 
     44 O         -73.1854   24.4341  -74.7375 O.2       6 UNK        -0.5032 
     45 CA        -74.8459   23.9320  -73.0601 C.3       5 UNK         0.0783 
     46 C46       -74.0768   24.9266  -72.1475 C.3       11 UNK        -0.0857 
     47 S47       -74.8835   25.1963  -70.5264 S.3       11 UNK        -0.2512 
     48 C48       -74.9618   27.0154  -70.4214 C.3       11 UNK         0.0225 
     49 N         -76.2725   24.2553  -73.1163 N.am      5 UNK        -0.4615 
     50 C         -77.2764   23.4309  -73.4322 C.2       4 UNK         0.5053 
     51 O         -77.1220   22.2590  -73.7780 O.2       4 UNK        -0.5105 
     52 CA        -78.6903   24.0251  -73.3668 C.3       4 UNK         0.0263 
     53 CB        -78.8345   25.0878  -72.2642 C.3       4 UNK        -0.1981 
     54 N         -79.1920   24.5457  -74.6460 N.am      4 UNK        -0.4224 
     55 C         -78.5517   25.2722  -75.5782 C.2       3 UNK         0.4895 
     56 O         -77.3698   25.6101  -75.5117 O.2       3 UNK        -0.5091 
     57 CA        -79.3508   25.6859  -76.8223 C.3       3 UNK         0.0250 
     58 CB        -79.1917   24.6212  -77.9258 C.3       3 UNK        -0.1996 
     59 N         -80.7697   25.9500  -76.5464 N.am      3 UNK        -0.4254 
     60 C         -81.5780   26.6558  -77.3556 C.2       2 UNK         0.5004 
     61 O         -81.2117   27.1538  -78.4208 O.2       2 UNK        -0.5226 
     62 CA        -83.0438   26.8490  -76.9180 C.3       2 UNK         0.0269 
     63 CB        -83.9371   25.7632  -77.5395 C.3       2 UNK        -0.1926 
     64 N         -83.1938   26.8172  -75.4644 N.am      2 UNK        -0.4687 
     65 C         -82.8547   27.8167  -74.6424 C.2       1 UNK         0.5165 
     66 O         -82.6198   28.9574  -75.0446 O.2       1 UNK        -0.5079 
     67 H67       -83.7752   23.0887  -73.0491 H         1 UNK         0.0900 
     68 H68       -82.4636   23.1977  -71.8718 H         1 UNK         0.0900 
     69 H69       -83.9899   24.0314  -71.5711 H         1 UNK         0.0900 
     70 H70       -83.8673   26.1982  -71.9645 H         1 UNK         0.2959 
     71 H71       -83.3881   28.2143  -72.6341 H         1 UNK         0.1079 
     72 H72       -81.0493   28.8781  -72.9310 H         1 UNK         0.0837 
     73 H73       -80.5472   27.2285  -73.2028 H         1 UNK         0.0837 
     74 H74       -79.5183   28.9887  -69.4960 H         1 UNK         0.0685 
     75 H75       -80.0286   29.8881  -70.8974 H         1 UNK         0.0685 
     76 H76       -77.4816   27.6225  -69.5423 H         1 UNK         0.1434 
     77 H77       -75.0031   27.7841  -73.0374 H         1 UNK         0.1329 
     78 H78       -78.9244   29.4876  -73.1222 H         1 UNK         0.1335 
     79 H79       -77.1806   28.2520  -75.3312 H         1 UNK         0.0680 
     80 H80       -77.4342   29.9314  -74.9308 H         1 UNK         0.0680 
     81 H81       -75.4538   31.1101  -73.4913 H         1 UNK         0.1032 
     82 H82       -74.9606   31.8305  -74.9928 H         1 UNK         0.1032 
     83 H83       -73.1167   32.1213  -73.5434 H         1 UNK         0.0461 
     84 H84       -72.0544   28.7462  -71.6429 H         1 UNK         0.3453 
     85 H85       -71.7067   28.9548  -73.3420 H         1 UNK         0.3453 
     86 H86       -72.7062   30.1820  -75.6438 H         1 UNK         0.2984 
     87 H87       -70.4131   31.2456  -76.9744 H         1 UNK         0.0554 
     88 H88       -68.1565   30.1909  -76.7075 H         1 UNK         0.0847 
     89 H89       -68.4781   29.9337  -74.9930 H         1 UNK         0.0847 
     90 H90       -68.3574   31.5650  -75.6362 H         1 UNK         0.0847 
     91 H91       -70.9041   29.1635  -77.5815 H         1 UNK         0.3141 
     92 H92       -70.6548   26.9236  -77.6527 H         1 UNK         0.0743 
     93 H93       -69.2870   25.7409  -75.9627 H         1 UNK         0.0784 
     94 H94       -70.5552   24.6919  -76.5808 H         1 UNK         0.0784 
     95 H95       -70.7120   25.4229  -74.9855 H         1 UNK         0.0784 
     96 H96       -72.8637   25.8581  -76.1013 H         1 UNK         0.3213 
     97 H97       -75.3496   27.2693  -77.0075 H         1 UNK         0.0855 
     98 H98       -74.8549   26.2332  -79.8421 H         1 UNK         0.0814 
     99 H99       -75.4053   27.8419  -79.3992 H         1 UNK         0.0814 
    100 H100      -76.4400   26.4565  -79.1000 H         1 UNK         0.0814 
    101 H101      -75.5764   25.1900  -76.3823 H         1 UNK         0.3105 
    102 H102      -75.4264   22.3581  -77.2298 H         1 UNK         0.0547 
    103 H103      -73.5139   21.0134  -76.3089 H         1 UNK         0.0837 
    104 H104      -72.4429   22.3979  -76.5227 H         1 UNK         0.0837 
    105 H105      -73.1696   21.6168  -77.9193 H         1 UNK         0.0837 
    106 H106      -75.7665   22.6804  -75.0587 H         1 UNK         0.3020 
    107 H107      -74.7503   22.9395  -72.6142 H         1 UNK         0.1245 
    108 H108      -73.9452   25.8845  -72.6497 H         1 UNK         0.0781 
    109 H109      -73.0678   24.5549  -71.9599 H         1 UNK         0.0781 
    110 H110      -74.0145   27.4429  -70.7530 H         1 UNK         0.0836 
    111 H111      -75.0542   27.2922  -69.3701 H         1 UNK         0.0836 
    112 H112      -76.5065   25.2132  -72.8969 H         1 UNK         0.3022 
    113 H113      -79.3476   23.1964  -73.0988 H         1 UNK         0.0747 
    114 H114      -79.8838   25.2475  -72.0262 H         1 UNK         0.0793 
    115 H115      -78.3465   24.7833  -71.3370 H         1 UNK         0.0793 
    116 H116      -78.4093   26.0428  -72.5684 H         1 UNK         0.0793 
    117 H117      -80.1754   24.3462  -74.7912 H         1 UNK         0.3047 
    118 H118      -78.9009   26.6159  -77.1778 H         1 UNK         0.0822 
    119 H119      -79.6147   24.9567  -78.8726 H         1 UNK         0.0807 
    120 H120      -79.6803   23.6851  -77.6535 H         1 UNK         0.0807 
    121 H121      -78.1386   24.4009  -78.1081 H         1 UNK         0.0807 
    122 H122      -81.1450   25.6110  -75.6661 H         1 UNK         0.2946 
    123 H123      -83.3749   27.8223  -77.2881 H         1 UNK         0.1144 
    124 H124      -84.9857   25.9198  -77.2860 H         1 UNK         0.0793 
    125 H125      -83.6548   24.7651  -77.2018 H         1 UNK         0.0793 
    126 H126      -83.8625   25.7731  -78.6278 H         1 UNK         0.0793 
    127 H127      -83.3120   25.9057  -75.0403 H         1 UNK         0.2896 
@<TRIPOS>BOND
     1    1    2 1    
     2    1   67 1    
     3    1   68 1    
     4    1   69 1    
     5    2    3 2    
     6    2    4 am   BACKBONE|DICT|INTERRES
     7    4    5 1    
     8    4   70 1    
     9    5    6 1    
    10    5   65 1    
    11    5   71 1    
    12    6    7 1    
    13    6   72 1    
    14    6   73 1    
    15    7    8 1    
    16    8    9 1    
    17    8   74 1    
    18    8   75 1    
    19    9   10 ar   
    20    9   14 ar   
    21   10   11 ar   
    22   10   76 1    
    23   11   12 ar   
    24   11   48 1    
    25   12   13 ar   
    26   12   77 1    
    27   13   14 ar   
    28   13   15 1    
    29   14   78 1    
    30   15   16 1    
    31   15   79 1    
    32   15   80 1    
    33   16   17 1    
    34   17   18 1    
    35   17   81 1    
    36   17   82 1    
    37   18   19 1    
    38   18   22 1    
    39   18   83 1    
    40   19   20 am   BACKBONE|DICT|INTERRES
    41   19   21 2    
    42   20   84 1    
    43   20   85 1    
    44   22   23 am   BACKBONE|DICT|INTERRES
    45   22   86 1    
    46   23   24 2    
    47   23   25 1    
    48   25   26 1    
    49   25   27 1    
    50   25   87 1    
    51   26   88 1    
    52   26   89 1    
    53   26   90 1    
    54   27   28 am   BACKBONE|DICT|INTERRES
    55   27   91 1    
    56   28   29 2    
    57   28   30 1    
    58   30   31 1    
    59   30   32 1    
    60   30   92 1    
    61   31   93 1    
    62   31   94 1    
    63   31   95 1    
    64   32   33 am   BACKBONE|DICT|INTERRES
    65   32   96 1    
    66   33   34 2    
    67   33   35 1    
    68   35   36 1    
    69   35   37 1    
    70   35   97 1    
    71   36   98 1    
    72   36   99 1    
    73   36  100 1    
    74   37   38 am   BACKBONE|DICT|INTERRES
    75   37  101 1    
    76   38   39 2    
    77   38   40 1    
    78   40   41 1    
    79   40   42 1    
    80   40  102 1    
    81   41  103 1    
    82   41  104 1    
    83   41  105 1    
    84   42   43 am   BACKBONE|DICT|INTERRES
    85   42  106 1    
    86   43   44 2    
    87   43   45 1    
    88   45   46 1    
    89   45   49 1    
    90   45  107 1    
    91   46   47 1    
    92   46  108 1    
    93   46  109 1    
    94   47   48 1    
    95   48  110 1    
    96   48  111 1    
    97   49   50 am   BACKBONE|DICT|INTERRES
    98   49  112 1    
    99   50   51 2    
   100   50   52 1    
   101   52   53 1    
   102   52   54 1    
   103   52  113 1    
   104   53  114 1    
   105   53  115 1    
   106   53  116 1    
   107   54   55 am   BACKBONE|DICT|INTERRES
   108   54  117 1    
   109   55   56 2    
   110   55   57 1    
   111   57   58 1    
   112   57   59 1    
   113   57  118 1    
   114   58  119 1    
   115   58  120 1    
   116   58  121 1    
   117   59   60 am   BACKBONE|DICT|INTERRES
   118   59  122 1    
   119   60   61 2    
   120   60   62 1    
   121   62   63 1    
   122   62   64 1    
   123   62  123 1    
   124   63  124 1    
   125   63  125 1    
   126   63  126 1    
   127   64   65 am   BACKBONE|DICT|INTERRES
   128   64  127 1    
   129   65   66 2    
@<TRIPOS>SUBSTRUCTURE
     1 UNK         1 GROUP             0       ****    0 ROOT    
