@<TRIPOS>MOLECULE
3R135
127   129    1
SMALL
USER_CHARGES


@<TRIPOS>ATOM
      1 CA        -76.5051   21.0971  -73.9721 C.3       0 UNK        -0.1998 
      2 C         -77.5960   21.6802  -73.0876 C.2       0 UNK         0.4909 
      3 O         -78.1504   20.9705  -72.2468 O.2       0 UNK        -0.5240 
      4 N         -77.9066   22.9672  -73.2743 N.am      1 UNK        -0.4739 
      5 CA        -79.0018   23.6657  -72.5933 C.3       1 UNK         0.0864 
      6 C6        -78.6938   25.1778  -72.4549 C.3       11 UNK        -0.0881 
      7 S7        -77.3252   25.4869  -71.2906 S.3       11 UNK        -0.2682 
      8 C8        -77.8824   27.0119  -70.4650 C.3       11 UNK         0.0289 
      9 C9        -77.7081   28.2245  -71.3671 C.ar      11 UNK        -0.0687 
     10 C10       -78.7354   28.6229  -72.2265 C.ar      11 UNK        -0.0823 
     11 C11       -78.5578   29.7116  -73.0828 C.ar      11 UNK        -0.0830 
     12 C12       -77.3519   30.4182  -73.0556 C.ar      11 UNK        -0.1021 
     13 C13       -76.3172   30.0447  -72.1927 C.ar      11 UNK        -0.0753 
     14 C14       -76.5084   28.9418  -71.3484 C.ar      11 UNK        -0.0933 
     15 C15       -75.0171   30.8508  -72.2459 C.3       11 UNK         0.0166 
     16 S16       -73.7445   30.4057  -71.0084 S.3       11 UNK        -0.2615 
     17 C17       -72.3745   31.5856  -71.3111 C.3       11 UNK        -0.0865 
     18 CA        -72.1347   32.0075  -72.7858 C.3       10 UNK         0.0862 
     19 C         -70.9425   32.9976  -72.8891 C.2       10 UNK         0.5551 
     20 N         -71.1992   34.2913  -72.7527 N.am      10 UNK        -0.7319 
     21 O         -69.7882   32.6034  -73.0459 O.2       10 UNK        -0.5018 
     22 N         -71.9689   30.8354  -73.6530 N.am      10 UNK        -0.4509 
     23 C         -72.0360   30.8397  -74.9872 C.2       10 UNK         0.4899 
     24 O         -72.2375   31.8535  -75.6564 O.2       10 UNK        -0.4839 
     25 CA        -71.9061   29.4874  -75.7115 C.3       9 UNK         0.0222 
     26 CB        -70.4562   29.2317  -76.1648 C.3       9 UNK        -0.1966 
     27 N         -72.4580   28.3355  -74.9822 N.am      9 UNK        -0.4218 
     28 C         -72.0084   27.7324  -73.8704 C.2       9 UNK         0.5020 
     29 O         -71.0396   28.1230  -73.2184 O.2       9 UNK        -0.5274 
     30 CA        -72.7742   26.4852  -73.4005 C.3       8 UNK         0.0270 
     31 CB        -73.9361   26.8748  -72.4772 C.3       8 UNK        -0.1976 
     32 N         -73.2935   25.7135  -74.5296 N.am      8 UNK        -0.4313 
     33 C         -72.5868   24.8045  -75.2152 C.2       8 UNK         0.5041 
     34 O         -71.4495   24.4429  -74.9106 O.2       8 UNK        -0.5577 
     35 CA        -73.2595   24.2057  -76.4626 C.3       7 UNK         0.0284 
     36 CB        -74.1240   22.9961  -76.0775 C.3       7 UNK        -0.1958 
     37 N         -74.0797   25.1889  -77.1746 N.am      7 UNK        -0.4454 
     38 C         -73.5800   26.2231  -77.8682 C.2       7 UNK         0.5089 
     39 O         -72.3768   26.3999  -78.0573 O.2       7 UNK        -0.5125 
     40 CA        -74.5791   27.2494  -78.4355 C.3       6 UNK         0.0408 
     41 CB        -74.8018   27.0040  -79.9361 C.3       6 UNK        -0.1791 
     42 N         -75.8785   27.2739  -77.7560 N.am      6 UNK        -0.4762 
     43 C         -76.0831   27.5987  -76.4699 C.2       6 UNK         0.5007 
     44 O         -75.1758   27.8929  -75.6919 O.2       6 UNK        -0.5032 
     45 CA        -77.5369   27.5266  -75.9620 C.3       5 UNK         0.0783 
     46 C46       -78.2522   28.8821  -76.1761 C.3       11 UNK        -0.0857 
     47 S47       -79.8975   28.9078  -75.3861 S.3       11 UNK        -0.2512 
     48 C48       -79.6653   30.1200  -74.0443 C.3       11 UNK         0.0225 
     49 N         -78.2751   26.4235  -76.5908 N.am      5 UNK        -0.4615 
     50 C         -77.9960   25.1221  -76.4589 C.2       4 UNK         0.5053 
     51 O         -77.1149   24.6837  -75.7162 O.2       4 UNK        -0.5105 
     52 CA        -78.8380   24.1676  -77.3207 C.3       4 UNK         0.0263 
     53 CB        -78.3815   22.7011  -77.2069 C.3       4 UNK        -0.1981 
     54 N         -80.2608   24.2668  -76.9869 N.am      4 UNK        -0.4224 
     55 C         -81.1136   25.1597  -77.5120 C.2       3 UNK         0.4895 
     56 O         -80.7640   26.0309  -78.3099 O.2       3 UNK        -0.5091 
     57 CA        -82.5975   25.0784  -77.1038 C.3       3 UNK         0.0250 
     58 CB        -83.4121   24.3721  -78.2000 C.3       3 UNK        -0.1996 
     59 N         -82.8119   24.3862  -75.8312 N.am      3 UNK        -0.4254 
     60 C         -82.6585   24.9543  -74.6283 C.2       2 UNK         0.5004 
     61 O         -82.3997   26.1466  -74.4622 O.2       2 UNK        -0.5226 
     62 CA        -82.7595   24.0407  -73.3898 C.3       2 UNK         0.0269 
     63 CB        -83.3995   22.6583  -73.6592 C.3       2 UNK        -0.1926 
     64 N         -81.4401   23.9022  -72.7582 N.am      2 UNK        -0.4687 
     65 C         -80.3267   23.4445  -73.3522 C.2       1 UNK         0.5165 
     66 O         -80.3267   22.9167  -74.4676 O.2       1 UNK        -0.5079 
     67 H67       -76.5018   21.5661  -74.9549 H         1 UNK         0.0900 
     68 H68       -76.6606   20.0281  -74.1153 H         1 UNK         0.0900 
     69 H69       -75.5277   21.2426  -73.5129 H         1 UNK         0.0900 
     70 H70       -77.4553   23.4934  -74.0150 H         1 UNK         0.2959 
     71 H71       -79.1322   23.2444  -71.5937 H         1 UNK         0.1079 
     72 H72       -78.4426   25.6176  -73.4211 H         1 UNK         0.0837 
     73 H73       -79.5711   25.7182  -72.0978 H         1 UNK         0.0837 
     74 H74       -78.9216   26.9116  -70.1484 H         1 UNK         0.0685 
     75 H75       -77.3010   27.1457  -69.5515 H         1 UNK         0.0685 
     76 H76       -79.6677   28.0759  -72.2487 H         1 UNK         0.1434 
     77 H77       -77.2114   31.2605  -73.7196 H         1 UNK         0.1329 
     78 H78       -75.7237   28.6154  -70.6820 H         1 UNK         0.1335 
     79 H79       -74.6050   30.7226  -73.2461 H         1 UNK         0.0680 
     80 H80       -75.2528   31.9098  -72.1308 H         1 UNK         0.0680 
     81 H81       -71.4668   31.1391  -70.9000 H         1 UNK         0.1032 
     82 H82       -72.5688   32.4700  -70.7013 H         1 UNK         0.1032 
     83 H83       -73.0209   32.5412  -73.1338 H         1 UNK         0.0461 
     84 H84       -70.4368   34.9494  -72.8002 H         1 UNK         0.3453 
     85 H85       -72.1401   34.6261  -72.6142 H         1 UNK         0.3453 
     86 H86       -71.7302   29.9612  -73.1970 H         1 UNK         0.2984 
     87 H87       -72.5162   29.5648  -76.6129 H         1 UNK         0.0554 
     88 H88       -70.3786   28.3068  -76.7367 H         1 UNK         0.0847 
     89 H89       -69.7693   29.1650  -75.3206 H         1 UNK         0.0847 
     90 H90       -70.1017   30.0403  -76.8053 H         1 UNK         0.0847 
     91 H91       -73.3509   28.0075  -75.3439 H         1 UNK         0.3141 
     92 H92       -72.0826   25.8635  -72.8278 H         1 UNK         0.0743 
     93 H93       -74.6675   27.5013  -72.9889 H         1 UNK         0.0784 
     94 H94       -73.5753   27.4303  -71.6112 H         1 UNK         0.0784 
     95 H95       -74.4542   25.9930  -72.1014 H         1 UNK         0.0784 
     96 H96       -74.2124   25.9672  -74.8672 H         1 UNK         0.3213 
     97 H97       -72.4721   23.8634  -77.1380 H         1 UNK         0.0855 
     98 H98       -74.8996   23.2734  -75.3639 H         1 UNK         0.0814 
     99 H99       -73.5182   22.2176  -75.6118 H         1 UNK         0.0814 
    100 H100      -74.6075   22.5543  -76.9488 H         1 UNK         0.0814 
    101 H101      -75.0817   25.1192  -77.0606 H         1 UNK         0.3105 
    102 H102      -74.1283   28.2368  -78.3152 H         1 UNK         0.0547 
    103 H103      -73.8547   27.0114  -80.4778 H         1 UNK         0.0837 
    104 H104      -75.2750   26.0392  -80.1225 H         1 UNK         0.0837 
    105 H105      -75.4290   27.7785  -80.3778 H         1 UNK         0.0837 
    106 H106      -76.6842   27.0342  -78.3159 H         1 UNK         0.3020 
    107 H107      -77.4831   27.3292  -74.8887 H         1 UNK         0.1245 
    108 H108      -77.6507   29.7065  -75.7897 H         1 UNK         0.0781 
    109 H109      -78.3835   29.0841  -77.2408 H         1 UNK         0.0781 
    110 H110      -80.6016   30.2204  -73.4935 H         1 UNK         0.0836 
    111 H111      -79.4622   31.0996  -74.4798 H         1 UNK         0.0836 
    112 H112      -79.0540   26.6820  -77.1861 H         1 UNK         0.3022 
    113 H113      -78.6928   24.4664  -78.3611 H         1 UNK         0.0747 
    114 H114      -78.9542   22.0565  -77.8736 H         1 UNK         0.0793 
    115 H115      -77.3306   22.5961  -77.4797 H         1 UNK         0.0793 
    116 H116      -78.4943   22.3158  -76.1945 H         1 UNK         0.0793 
    117 H117      -80.5789   23.6519  -76.2425 H         1 UNK         0.3047 
    118 H118      -82.9668   26.1027  -77.0153 H         1 UNK         0.0822 
    119 H119      -84.4761   24.3659  -77.9620 H         1 UNK         0.0807 
    120 H120      -83.0922   23.3387  -78.3400 H         1 UNK         0.0807 
    121 H121      -83.2996   24.8807  -79.1586 H         1 UNK         0.0807 
    122 H122      -83.0014   23.3951  -75.8740 H         1 UNK         0.2946 
    123 H123      -83.3995   24.5663  -72.6788 H         1 UNK         0.1144 
    124 H124      -84.3946   22.7648  -74.0933 H         1 UNK         0.0793 
    125 H125      -83.5175   22.0996  -72.7307 H         1 UNK         0.0793 
    126 H126      -82.8071   22.0414  -74.3352 H         1 UNK         0.0793 
    127 H127      -81.3556   24.3268  -71.8448 H         1 UNK         0.2896 
@<TRIPOS>BOND
     1    1    2 1    
     2    1   67 1    
     3    1   68 1    
     4    1   69 1    
     5    2    3 2    
     6    2    4 am   BACKBONE|DICT|INTERRES
     7    4    5 1    
     8    4   70 1    
     9    5    6 1    
    10    5   65 1    
    11    5   71 1    
    12    6    7 1    
    13    6   72 1    
    14    6   73 1    
    15    7    8 1    
    16    8    9 1    
    17    8   74 1    
    18    8   75 1    
    19    9   10 ar   
    20    9   14 ar   
    21   10   11 ar   
    22   10   76 1    
    23   11   12 ar   
    24   11   48 1    
    25   12   13 ar   
    26   12   77 1    
    27   13   14 ar   
    28   13   15 1    
    29   14   78 1    
    30   15   16 1    
    31   15   79 1    
    32   15   80 1    
    33   16   17 1    
    34   17   18 1    
    35   17   81 1    
    36   17   82 1    
    37   18   19 1    
    38   18   22 1    
    39   18   83 1    
    40   19   20 am   BACKBONE|DICT|INTERRES
    41   19   21 2    
    42   20   84 1    
    43   20   85 1    
    44   22   23 am   BACKBONE|DICT|INTERRES
    45   22   86 1    
    46   23   24 2    
    47   23   25 1    
    48   25   26 1    
    49   25   27 1    
    50   25   87 1    
    51   26   88 1    
    52   26   89 1    
    53   26   90 1    
    54   27   28 am   BACKBONE|DICT|INTERRES
    55   27   91 1    
    56   28   29 2    
    57   28   30 1    
    58   30   31 1    
    59   30   32 1    
    60   30   92 1    
    61   31   93 1    
    62   31   94 1    
    63   31   95 1    
    64   32   33 am   BACKBONE|DICT|INTERRES
    65   32   96 1    
    66   33   34 2    
    67   33   35 1    
    68   35   36 1    
    69   35   37 1    
    70   35   97 1    
    71   36   98 1    
    72   36   99 1    
    73   36  100 1    
    74   37   38 am   BACKBONE|DICT|INTERRES
    75   37  101 1    
    76   38   39 2    
    77   38   40 1    
    78   40   41 1    
    79   40   42 1    
    80   40  102 1    
    81   41  103 1    
    82   41  104 1    
    83   41  105 1    
    84   42   43 am   BACKBONE|DICT|INTERRES
    85   42  106 1    
    86   43   44 2    
    87   43   45 1    
    88   45   46 1    
    89   45   49 1    
    90   45  107 1    
    91   46   47 1    
    92   46  108 1    
    93   46  109 1    
    94   47   48 1    
    95   48  110 1    
    96   48  111 1    
    97   49   50 am   BACKBONE|DICT|INTERRES
    98   49  112 1    
    99   50   51 2    
   100   50   52 1    
   101   52   53 1    
   102   52   54 1    
   103   52  113 1    
   104   53  114 1    
   105   53  115 1    
   106   53  116 1    
   107   54   55 am   BACKBONE|DICT|INTERRES
   108   54  117 1    
   109   55   56 2    
   110   55   57 1    
   111   57   58 1    
   112   57   59 1    
   113   57  118 1    
   114   58  119 1    
   115   58  120 1    
   116   58  121 1    
   117   59   60 am   BACKBONE|DICT|INTERRES
   118   59  122 1    
   119   60   61 2    
   120   60   62 1    
   121   62   63 1    
   122   62   64 1    
   123   62  123 1    
   124   63  124 1    
   125   63  125 1    
   126   63  126 1    
   127   64   65 am   BACKBONE|DICT|INTERRES
   128   64  127 1    
   129   65   66 2    
@<TRIPOS>SUBSTRUCTURE
     1 UNK         1 GROUP             0       ****    0 ROOT    
