@<TRIPOS>MOLECULE
3R135
127   129    1
SMALL
USER_CHARGES


@<TRIPOS>ATOM
      1 CA        -81.5822   30.5935  -76.6729 C.3       0 UNK        -0.1998 
      2 C         -80.9717   29.7973  -75.5293 C.2       0 UNK         0.4909 
      3 O         -79.7655   29.8859  -75.3049 O.2       0 UNK        -0.5240 
      4 N         -81.7983   29.0251  -74.8163 N.am      1 UNK        -0.4739 
      5 CA        -81.4021   28.1331  -73.7209 C.3       1 UNK         0.0864 
      6 C6        -82.1172   28.4904  -72.3924 C.3       11 UNK        -0.0881 
      7 S7        -81.7616   30.1957  -71.8465 S.3       11 UNK        -0.2682 
      8 C8        -80.5233   29.9325  -70.5355 C.3       11 UNK         0.0289 
      9 C9        -79.2252   29.3160  -71.0460 C.ar      11 UNK        -0.0687 
     10 C10       -78.7358   28.1386  -70.4721 C.ar      11 UNK        -0.0823 
     11 C11       -77.5218   27.5843  -70.8913 C.ar      11 UNK        -0.0830 
     12 C12       -76.7994   28.2238  -71.9075 C.ar      11 UNK        -0.1021 
     13 C13       -77.2790   29.3962  -72.4961 C.ar      11 UNK        -0.0753 
     14 C14       -78.4896   29.9398  -72.0585 C.ar      11 UNK        -0.0933 
     15 C15       -76.4926   30.0764  -73.6068 C.3       11 UNK         0.0166 
     16 S16       -75.5149   31.4762  -72.9801 S.3       11 UNK        -0.2615 
     17 C17       -74.0963   30.6286  -72.2024 C.3       11 UNK        -0.0865 
     18 CA        -72.7416   31.0468  -72.8351 C.3       10 UNK         0.0862 
     19 C         -72.2196   32.3895  -72.2584 C.2       10 UNK         0.5551 
     20 N         -72.6399   33.5145  -72.8188 N.am      10 UNK        -0.7319 
     21 O         -71.4530   32.4193  -71.2964 O.2       10 UNK        -0.5018 
     22 N         -71.7263   30.0025  -72.6498 N.am      10 UNK        -0.4509 
     23 C         -71.3940   28.9832  -73.4520 C.2       10 UNK         0.4899 
     24 O         -70.5154   28.1917  -73.1120 O.2       10 UNK        -0.4839 
     25 CA        -72.1081   28.8099  -74.8144 C.3       9 UNK         0.0222 
     26 CB        -71.5013   29.7259  -75.9013 C.3       9 UNK        -0.1966 
     27 N         -72.1475   27.4119  -75.2695 N.am      9 UNK        -0.4218 
     28 C         -71.1459   26.6327  -75.7125 C.2       9 UNK         0.5020 
     29 O         -69.9804   27.0007  -75.8704 O.2       9 UNK        -0.5274 
     30 CA        -71.5138   25.1793  -76.0602 C.3       8 UNK         0.0270 
     31 CB        -71.6642   24.3333  -74.7848 C.3       8 UNK        -0.1976 
     32 N         -72.7280   25.0756  -76.8739 N.am      8 UNK        -0.4313 
     33 C         -72.8331   25.5055  -78.1402 C.2       8 UNK         0.5041 
     34 O         -71.8975   25.9840  -78.7831 O.2       8 UNK        -0.5577 
     35 CA        -74.2148   25.3890  -78.8073 C.3       7 UNK         0.0284 
     36 CB        -74.4437   23.9688  -79.3490 C.3       7 UNK        -0.1958 
     37 N         -75.3093   25.7630  -77.9091 N.am      7 UNK        -0.4454 
     38 C         -75.5183   27.0058  -77.4488 C.2       7 UNK         0.5089 
     39 O         -74.8612   27.9876  -77.7949 O.2       7 UNK        -0.5125 
     40 CA        -76.6290   27.1795  -76.4007 C.3       6 UNK         0.0408 
     41 CB        -78.0056   27.3000  -77.0721 C.3       6 UNK        -0.1791 
     42 N         -76.6572   26.0912  -75.4240 N.am      6 UNK        -0.4762 
     43 C         -75.6786   25.7868  -74.5610 C.2       6 UNK         0.5007 
     44 O         -74.6430   26.4408  -74.4441 O.2       6 UNK        -0.5032 
     45 CA        -75.8619   24.4946  -73.7397 C.3       5 UNK         0.0783 
     46 C46       -76.7226   24.7104  -72.4722 C.3       11 UNK        -0.0857 
     47 S47       -75.7448   25.3689  -71.0849 S.3       11 UNK        -0.2512 
     48 C48       -77.0136   26.3251  -70.1855 C.3       11 UNK         0.0225 
     49 N         -76.3993   23.4128  -74.5659 N.am      5 UNK        -0.4615 
     50 C         -75.7193   22.7806  -75.5292 C.2       4 UNK         0.5053 
     51 O         -74.5534   23.0399  -75.8237 O.2       4 UNK        -0.5105 
     52 CA        -76.4777   21.6941  -76.3095 C.3       4 UNK         0.0263 
     53 CB        -76.3935   20.3463  -75.5762 C.3       4 UNK        -0.1981 
     54 N         -77.8830   22.0397  -76.5438 N.am      4 UNK        -0.4224 
     55 C         -78.2826   23.0276  -77.3561 C.2       3 UNK         0.4895 
     56 O         -77.5109   23.7365  -78.0029 O.2       3 UNK        -0.5091 
     57 CA        -79.7961   23.2988  -77.4262 C.3       3 UNK         0.0250 
     58 CB        -80.4935   22.2557  -78.3147 C.3       3 UNK        -0.1996 
     59 N         -80.4793   23.3787  -76.1256 N.am      3 UNK        -0.4254 
     60 C         -80.1142   24.1800  -75.1151 C.2       2 UNK         0.5004 
     61 O         -79.0599   24.8133  -75.0895 O.2       2 UNK        -0.5226 
     62 CA        -81.0679   24.3122  -73.9189 C.3       2 UNK         0.0269 
     63 CB        -80.6094   23.4162  -72.7576 C.3       2 UNK        -0.1926 
     64 N         -81.0828   25.7106  -73.4768 N.am      2 UNK        -0.4687 
     65 C         -81.7184   26.6854  -74.1405 C.2       1 UNK         0.5165 
     66 O         -82.5272   26.4676  -75.0487 O.2       1 UNK        -0.5079 
     67 H67       -81.4172   31.6592  -76.5164 H         1 UNK         0.0900 
     68 H68       -82.6555   30.4257  -76.7603 H         1 UNK         0.0900 
     69 H69       -81.1162   30.3110  -77.6165 H         1 UNK         0.0900 
     70 H70       -82.7664   28.9429  -75.0942 H         1 UNK         0.2959 
     71 H71       -80.3225   28.1913  -73.5638 H         1 UNK         0.1079 
     72 H72       -81.8322   27.7972  -71.5988 H         1 UNK         0.0837 
     73 H73       -83.1990   28.3937  -72.5027 H         1 UNK         0.0837 
     74 H74       -80.2934   30.8950  -70.0767 H         1 UNK         0.0685 
     75 H75       -80.9673   29.3187  -69.7503 H         1 UNK         0.0685 
     76 H76       -79.2928   27.6609  -69.6772 H         1 UNK         0.1434 
     77 H77       -75.8555   27.8206  -72.2439 H         1 UNK         0.1329 
     78 H78       -78.8607   30.8503  -72.5092 H         1 UNK         0.1335 
     79 H79       -77.1814   30.4372  -74.3721 H         1 UNK         0.0680 
     80 H80       -75.8277   29.3677  -74.1012 H         1 UNK         0.0680 
     81 H81       -74.1109   30.8157  -71.1268 H         1 UNK         0.1032 
     82 H82       -74.2343   29.5523  -72.3066 H         1 UNK         0.1032 
     83 H83       -72.8895   31.2059  -73.9019 H         1 UNK         0.0461 
     84 H84       -73.2981   33.4972  -73.5826 H         1 UNK         0.3453 
     85 H85       -72.3182   34.3969  -72.4529 H         1 UNK         0.3453 
     86 H86       -71.1908   30.1285  -71.8012 H         1 UNK         0.2984 
     87 H87       -73.1567   29.0787  -74.6848 H         1 UNK         0.0554 
     88 H88       -71.9993   29.5804  -76.8603 H         1 UNK         0.0847 
     89 H89       -70.4374   29.5379  -76.0458 H         1 UNK         0.0847 
     90 H90       -71.5971   30.7805  -75.6477 H         1 UNK         0.0847 
     91 H91       -73.0517   26.9628  -75.1267 H         1 UNK         0.3141 
     92 H92       -70.6905   24.7603  -76.6428 H         1 UNK         0.0743 
     93 H93       -72.4922   24.6772  -74.1647 H         1 UNK         0.0784 
     94 H94       -71.8385   23.2839  -75.0235 H         1 UNK         0.0784 
     95 H95       -70.7599   24.3820  -74.1767 H         1 UNK         0.0784 
     96 H96       -73.5258   24.6117  -76.4489 H         1 UNK         0.3213 
     97 H97       -74.2307   26.0786  -79.6542 H         1 UNK         0.0855 
     98 H98       -74.4596   23.2271  -78.5505 H         1 UNK         0.0814 
     99 H99       -73.6515   23.6842  -80.0427 H         1 UNK         0.0814 
    100 H100      -75.3881   23.8982  -79.8890 H         1 UNK         0.0814 
    101 H101      -75.9514   25.0270  -77.6322 H         1 UNK         0.3105 
    102 H102      -76.4362   28.1066  -75.8623 H         1 UNK         0.0547 
    103 H103      -78.2639   26.4003  -77.6311 H         1 UNK         0.0837 
    104 H104      -78.7900   27.4693  -76.3341 H         1 UNK         0.0837 
    105 H105      -78.0285   28.1391  -77.7683 H         1 UNK         0.0837 
    106 H106      -77.5053   25.5227  -75.4054 H         1 UNK         0.3020 
    107 H107      -74.8651   24.1760  -73.4250 H         1 UNK         0.1245 
    108 H108      -77.5828   25.3503  -72.6796 H         1 UNK         0.0781 
    109 H109      -77.1340   23.7597  -72.1295 H         1 UNK         0.0781 
    110 H110      -77.8507   25.6605  -69.9653 H         1 UNK         0.0836 
    111 H111      -76.5956   26.6214  -69.2226 H         1 UNK         0.0836 
    112 H112      -77.3785   23.1995  -74.4460 H         1 UNK         0.3022 
    113 H113      -75.9896   21.5839  -77.2803 H         1 UNK         0.0747 
    114 H114      -76.8574   19.5490  -76.1573 H         1 UNK         0.0793 
    115 H115      -75.3544   20.0594  -75.4079 H         1 UNK         0.0793 
    116 H116      -76.8835   20.3820  -74.6023 H         1 UNK         0.0793 
    117 H117      -78.5826   21.5088  -76.0453 H         1 UNK         0.3047 
    118 H118      -79.9169   24.2745  -77.9016 H         1 UNK         0.0822 
    119 H119      -81.5359   22.5198  -78.4936 H         1 UNK         0.0807 
    120 H120      -80.4711   21.2610  -77.8678 H         1 UNK         0.0807 
    121 H121      -80.0088   22.1861  -79.2898 H         1 UNK         0.0807 
    122 H122      -81.3523   22.8761  -76.0507 H         1 UNK         0.2946 
    123 H123      -82.0752   24.0164  -74.2218 H         1 UNK         0.1144 
    124 H124      -81.2858   23.4963  -71.9064 H         1 UNK         0.0793 
    125 H125      -79.6084   23.6770  -72.4137 H         1 UNK         0.0793 
    126 H126      -80.5895   22.3674  -73.0566 H         1 UNK         0.0793 
    127 H127      -80.4135   25.9608  -72.7638 H         1 UNK         0.2896 
@<TRIPOS>BOND
     1    1    2 1    
     2    1   67 1    
     3    1   68 1    
     4    1   69 1    
     5    2    3 2    
     6    2    4 am   BACKBONE|DICT|INTERRES
     7    4    5 1    
     8    4   70 1    
     9    5    6 1    
    10    5   65 1    
    11    5   71 1    
    12    6    7 1    
    13    6   72 1    
    14    6   73 1    
    15    7    8 1    
    16    8    9 1    
    17    8   74 1    
    18    8   75 1    
    19    9   10 ar   
    20    9   14 ar   
    21   10   11 ar   
    22   10   76 1    
    23   11   12 ar   
    24   11   48 1    
    25   12   13 ar   
    26   12   77 1    
    27   13   14 ar   
    28   13   15 1    
    29   14   78 1    
    30   15   16 1    
    31   15   79 1    
    32   15   80 1    
    33   16   17 1    
    34   17   18 1    
    35   17   81 1    
    36   17   82 1    
    37   18   19 1    
    38   18   22 1    
    39   18   83 1    
    40   19   20 am   BACKBONE|DICT|INTERRES
    41   19   21 2    
    42   20   84 1    
    43   20   85 1    
    44   22   23 am   BACKBONE|DICT|INTERRES
    45   22   86 1    
    46   23   24 2    
    47   23   25 1    
    48   25   26 1    
    49   25   27 1    
    50   25   87 1    
    51   26   88 1    
    52   26   89 1    
    53   26   90 1    
    54   27   28 am   BACKBONE|DICT|INTERRES
    55   27   91 1    
    56   28   29 2    
    57   28   30 1    
    58   30   31 1    
    59   30   32 1    
    60   30   92 1    
    61   31   93 1    
    62   31   94 1    
    63   31   95 1    
    64   32   33 am   BACKBONE|DICT|INTERRES
    65   32   96 1    
    66   33   34 2    
    67   33   35 1    
    68   35   36 1    
    69   35   37 1    
    70   35   97 1    
    71   36   98 1    
    72   36   99 1    
    73   36  100 1    
    74   37   38 am   BACKBONE|DICT|INTERRES
    75   37  101 1    
    76   38   39 2    
    77   38   40 1    
    78   40   41 1    
    79   40   42 1    
    80   40  102 1    
    81   41  103 1    
    82   41  104 1    
    83   41  105 1    
    84   42   43 am   BACKBONE|DICT|INTERRES
    85   42  106 1    
    86   43   44 2    
    87   43   45 1    
    88   45   46 1    
    89   45   49 1    
    90   45  107 1    
    91   46   47 1    
    92   46  108 1    
    93   46  109 1    
    94   47   48 1    
    95   48  110 1    
    96   48  111 1    
    97   49   50 am   BACKBONE|DICT|INTERRES
    98   49  112 1    
    99   50   51 2    
   100   50   52 1    
   101   52   53 1    
   102   52   54 1    
   103   52  113 1    
   104   53  114 1    
   105   53  115 1    
   106   53  116 1    
   107   54   55 am   BACKBONE|DICT|INTERRES
   108   54  117 1    
   109   55   56 2    
   110   55   57 1    
   111   57   58 1    
   112   57   59 1    
   113   57  118 1    
   114   58  119 1    
   115   58  120 1    
   116   58  121 1    
   117   59   60 am   BACKBONE|DICT|INTERRES
   118   59  122 1    
   119   60   61 2    
   120   60   62 1    
   121   62   63 1    
   122   62   64 1    
   123   62  123 1    
   124   63  124 1    
   125   63  125 1    
   126   63  126 1    
   127   64   65 am   BACKBONE|DICT|INTERRES
   128   64  127 1    
   129   65   66 2    
@<TRIPOS>SUBSTRUCTURE
     1 UNK         1 GROUP             0       ****    0 ROOT    
