@<TRIPOS>MOLECULE
3R135
127   129    1
SMALL
USER_CHARGES


@<TRIPOS>ATOM
      1 CA        -83.7056   26.4943  -74.2864 C.3       0 UNK        -0.1998 
      2 C         -82.5095   27.2578  -74.8322 C.2       0 UNK         0.4909 
      3 O         -82.2124   27.1619  -76.0233 O.2       0 UNK        -0.5240 
      4 N         -81.8175   28.0164  -73.9723 N.am      1 UNK        -0.4739 
      5 CA        -80.6176   28.7926  -74.3042 C.3       1 UNK         0.0864 
      6 C6        -80.1426   29.7488  -73.1632 C.3       11 UNK        -0.0881 
      7 S7        -80.7985   29.4481  -71.4822 S.3       11 UNK        -0.2682 
      8 C8        -79.8860   27.9607  -70.9515 C.3       11 UNK         0.0289 
      9 C9        -78.3911   28.1440  -70.6879 C.ar      11 UNK        -0.0687 
     10 C10       -77.5588   27.0311  -70.8283 C.ar      11 UNK        -0.0823 
     11 C11       -76.1933   27.1153  -70.5478 C.ar      11 UNK        -0.0830 
     12 C12       -75.6576   28.3253  -70.1013 C.ar      11 UNK        -0.1021 
     13 C13       -76.4700   29.4551  -69.9601 C.ar      11 UNK        -0.0753 
     14 C14       -77.8369   29.3564  -70.2526 C.ar      11 UNK        -0.0933 
     15 C15       -75.8848   30.7716  -69.4505 C.3       11 UNK         0.0166 
     16 S16       -74.4068   31.3298  -70.3720 S.3       11 UNK        -0.2615 
     17 C17       -75.0711   31.4718  -72.0623 C.3       11 UNK        -0.0865 
     18 CA        -74.5987   30.2912  -72.9532 C.3       10 UNK         0.0862 
     19 C         -75.6811   29.9332  -74.0021 C.2       10 UNK         0.5551 
     20 N         -76.5773   29.0259  -73.6538 N.am      10 UNK        -0.7319 
     21 O         -75.7484   30.5062  -75.0869 O.2       10 UNK        -0.5018 
     22 N         -73.2872   30.5481  -73.5669 N.am      10 UNK        -0.4509 
     23 C         -72.5815   29.6154  -74.2173 C.2       10 UNK         0.4899 
     24 O         -72.8704   28.4176  -74.2345 O.2       10 UNK        -0.4839 
     25 CA        -71.3212   30.0895  -74.9532 C.3       9 UNK         0.0222 
     26 CB        -70.0730   29.8746  -74.0816 C.3       9 UNK        -0.1966 
     27 N         -71.1788   29.3328  -76.1969 N.am      9 UNK        -0.4218 
     28 C         -71.7887   29.6400  -77.3498 C.2       9 UNK         0.5020 
     29 O         -72.4102   30.6862  -77.5413 O.2       9 UNK        -0.5274 
     30 CA        -71.6875   28.6070  -78.4870 C.3       8 UNK         0.0270 
     31 CB        -70.4599   28.8927  -79.3682 C.3       8 UNK        -0.1976 
     32 N         -71.6294   27.2239  -78.0013 N.am      8 UNK        -0.4313 
     33 C         -72.6799   26.5516  -77.5118 C.2       8 UNK         0.5041 
     34 O         -73.8266   27.0038  -77.4553 O.2       8 UNK        -0.5577 
     35 CA        -72.3970   25.1365  -76.9945 C.3       7 UNK         0.0284 
     36 CB        -71.7416   25.1792  -75.6010 C.3       7 UNK        -0.1958 
     37 N         -73.6578   24.4071  -76.9178 N.am      7 UNK        -0.4454 
     38 C         -73.8034   23.0788  -76.9766 C.2       7 UNK         0.5089 
     39 O         -72.8671   22.2936  -77.1391 O.2       7 UNK        -0.5125 
     40 CA        -75.2425   22.5525  -76.8054 C.3       6 UNK         0.0408 
     41 CB        -75.3227   21.0197  -76.6451 C.3       6 UNK        -0.1791 
     42 N         -75.9463   23.2411  -75.7174 N.am      6 UNK        -0.4762 
     43 C         -75.6195   23.2519  -74.4148 C.2       6 UNK         0.5007 
     44 O         -74.7204   22.5697  -73.9217 O.2       6 UNK        -0.5032 
     45 CA        -76.4401   24.1902  -73.5066 C.3       5 UNK         0.0783 
     46 C46       -75.8478   25.6221  -73.4854 C.3       11 UNK        -0.0857 
     47 S47       -74.4652   25.8175  -72.3110 S.3       11 UNK        -0.2512 
     48 C48       -75.3065   25.8879  -70.6947 C.3       11 UNK         0.0225 
     49 N         -77.8651   24.2113  -73.8512 N.am      5 UNK        -0.4615 
     50 C         -78.7075   23.1831  -73.6803 C.2       4 UNK         0.5053 
     51 O         -78.3827   22.1042  -73.1847 O.2       4 UNK        -0.5105 
     52 CA        -80.1583   23.3939  -74.1406 C.3       4 UNK         0.0263 
     53 CB        -80.9836   24.0904  -73.0464 C.3       4 UNK        -0.1981 
     54 N         -80.2187   24.1686  -75.3813 N.am      4 UNK        -0.4224 
     55 C         -80.0190   23.6464  -76.6007 C.2       3 UNK         0.4895 
     56 O         -79.8755   22.4424  -76.8150 O.2       3 UNK        -0.5091 
     57 CA        -79.9461   24.6272  -77.7844 C.3       3 UNK         0.0250 
     58 CB        -81.3242   24.7865  -78.4458 C.3       3 UNK        -0.1996 
     59 N         -79.4201   25.9418  -77.4050 N.am      3 UNK        -0.4254 
     60 C         -78.1382   26.1647  -77.0769 C.2       2 UNK         0.5004 
     61 O         -77.2700   25.2943  -77.0993 O.2       2 UNK        -0.5226 
     62 CA        -77.7568   27.5762  -76.6004 C.3       2 UNK         0.0269 
     63 CB        -77.2428   28.4169  -77.7789 C.3       2 UNK        -0.1926 
     64 N         -78.8393   28.3008  -75.9219 N.am      2 UNK        -0.4687 
     65 C         -79.4783   27.8864  -74.8184 C.2       1 UNK         0.5165 
     66 O         -79.1942   26.8433  -74.2247 O.2       1 UNK        -0.5079 
     67 H67       -83.7159   26.4820  -73.1967 H         1 UNK         0.0900 
     68 H68       -84.6313   26.9522  -74.6334 H         1 UNK         0.0900 
     69 H69       -83.6850   25.4628  -74.6370 H         1 UNK         0.0900 
     70 H70       -82.0940   28.0623  -73.0013 H         1 UNK         0.2959 
     71 H71       -80.9100   29.4258  -75.1454 H         1 UNK         0.1079 
     72 H72       -79.0566   29.8137  -73.0968 H         1 UNK         0.0837 
     73 H73       -80.4531   30.7627  -73.4202 H         1 UNK         0.0837 
     74 H74       -80.0422   27.1807  -71.6970 H         1 UNK         0.0685 
     75 H75       -80.3446   27.5957  -70.0318 H         1 UNK         0.0685 
     76 H76       -77.9790   26.0884  -71.1531 H         1 UNK         0.1434 
     77 H77       -74.6033   28.3907  -69.8683 H         1 UNK         0.1329 
     78 H78       -78.4723   30.2206  -70.1192 H         1 UNK         0.1335 
     79 H79       -75.6146   30.6485  -68.4010 H         1 UNK         0.0680 
     80 H80       -76.6335   31.5647  -69.4822 H         1 UNK         0.0680 
     81 H81       -76.1604   31.5154  -71.9920 H         1 UNK         0.1032 
     82 H82       -74.7737   32.4306  -72.4897 H         1 UNK         0.1032 
     83 H83       -74.4720   29.4071  -72.3256 H         1 UNK         0.0461 
     84 H84       -76.5384   28.5856  -72.7459 H         1 UNK         0.3453 
     85 H85       -77.2939   28.7778  -74.3137 H         1 UNK         0.3453 
     86 H86       -72.9848   31.5101  -73.6003 H         1 UNK         0.2984 
     87 H87       -71.4101   31.1542  -75.1799 H         1 UNK         0.0554 
     88 H88       -70.1428   30.4452  -73.1545 H         1 UNK         0.0847 
     89 H89       -69.1687   30.2013  -74.5952 H         1 UNK         0.0847 
     90 H90       -69.9447   28.8262  -73.8086 H         1 UNK         0.0847 
     91 H91       -70.7418   28.4270  -76.1201 H         1 UNK         0.3141 
     92 H92       -72.5807   28.7140  -79.1069 H         1 UNK         0.0743 
     93 H93       -70.4929   29.9092  -79.7632 H         1 UNK         0.0784 
     94 H94       -69.5274   28.7902  -78.8117 H         1 UNK         0.0784 
     95 H95       -70.4185   28.2169  -80.2227 H         1 UNK         0.0784 
     96 H96       -70.7279   26.7683  -78.0309 H         1 UNK         0.3213 
     97 H97       -71.7327   24.6355  -77.7022 H         1 UNK         0.0855 
     98 H98       -72.3800   25.6862  -74.8753 H         1 UNK         0.0814 
     99 H99       -70.7894   25.7097  -75.6252 H         1 UNK         0.0814 
    100 H100      -71.5425   24.1761  -75.2236 H         1 UNK         0.0814 
    101 H101      -74.4772   25.0017  -76.8576 H         1 UNK         0.3105 
    102 H102      -75.7742   22.8142  -77.7214 H         1 UNK         0.0547 
    103 H103      -76.3543   20.6876  -76.5287 H         1 UNK         0.0837 
    104 H104      -74.7571   20.6691  -75.7815 H         1 UNK         0.0837 
    105 H105      -74.9167   20.5158  -77.5228 H         1 UNK         0.0837 
    106 H106      -76.6617   23.8935  -76.0328 H         1 UNK         0.3020 
    107 H107      -76.3799   23.7721  -72.4999 H         1 UNK         0.1245 
    108 H108      -76.6164   26.3465  -73.2268 H         1 UNK         0.0781 
    109 H109      -75.5027   25.9265  -74.4759 H         1 UNK         0.0781 
    110 H110      -74.5477   25.8928  -69.9108 H         1 UNK         0.0836 
    111 H111      -75.8862   24.9776  -70.5382 H         1 UNK         0.0836 
    112 H112      -78.2392   25.0879  -74.1991 H         1 UNK         0.3022 
    113 H113      -80.5982   22.4092  -74.3142 H         1 UNK         0.0747 
    114 H114      -82.0350   24.1506  -73.3247 H         1 UNK         0.0793 
    115 H115      -80.9314   23.5369  -72.1078 H         1 UNK         0.0793 
    116 H116      -80.6294   25.1014  -72.8472 H         1 UNK         0.0793 
    117 H117      -80.2930   25.1736  -75.2890 H         1 UNK         0.3047 
    118 H118      -79.2673   24.1954  -78.5235 H         1 UNK         0.0822 
    119 H119      -81.2774   25.4510  -79.3086 H         1 UNK         0.0807 
    120 H120      -82.0645   25.1861  -77.7527 H         1 UNK         0.0807 
    121 H121      -81.6983   23.8244  -78.7986 H         1 UNK         0.0807 
    122 H122      -80.0865   26.6990  -77.3286 H         1 UNK         0.2946 
    123 H123      -76.9330   27.4525  -75.8951 H         1 UNK         0.1144 
    124 H124      -76.4197   27.9112  -78.2867 H         1 UNK         0.0793 
    125 H125      -76.8628   29.3816  -77.4417 H         1 UNK         0.0793 
    126 H126      -78.0225   28.5990  -78.5193 H         1 UNK         0.0793 
    127 H127      -79.1334   29.1634  -76.3591 H         1 UNK         0.2896 
@<TRIPOS>BOND
     1    1    2 1    
     2    1   67 1    
     3    1   68 1    
     4    1   69 1    
     5    2    3 2    
     6    2    4 am   BACKBONE|DICT|INTERRES
     7    4    5 1    
     8    4   70 1    
     9    5    6 1    
    10    5   65 1    
    11    5   71 1    
    12    6    7 1    
    13    6   72 1    
    14    6   73 1    
    15    7    8 1    
    16    8    9 1    
    17    8   74 1    
    18    8   75 1    
    19    9   10 ar   
    20    9   14 ar   
    21   10   11 ar   
    22   10   76 1    
    23   11   12 ar   
    24   11   48 1    
    25   12   13 ar   
    26   12   77 1    
    27   13   14 ar   
    28   13   15 1    
    29   14   78 1    
    30   15   16 1    
    31   15   79 1    
    32   15   80 1    
    33   16   17 1    
    34   17   18 1    
    35   17   81 1    
    36   17   82 1    
    37   18   19 1    
    38   18   22 1    
    39   18   83 1    
    40   19   20 am   BACKBONE|DICT|INTERRES
    41   19   21 2    
    42   20   84 1    
    43   20   85 1    
    44   22   23 am   BACKBONE|DICT|INTERRES
    45   22   86 1    
    46   23   24 2    
    47   23   25 1    
    48   25   26 1    
    49   25   27 1    
    50   25   87 1    
    51   26   88 1    
    52   26   89 1    
    53   26   90 1    
    54   27   28 am   BACKBONE|DICT|INTERRES
    55   27   91 1    
    56   28   29 2    
    57   28   30 1    
    58   30   31 1    
    59   30   32 1    
    60   30   92 1    
    61   31   93 1    
    62   31   94 1    
    63   31   95 1    
    64   32   33 am   BACKBONE|DICT|INTERRES
    65   32   96 1    
    66   33   34 2    
    67   33   35 1    
    68   35   36 1    
    69   35   37 1    
    70   35   97 1    
    71   36   98 1    
    72   36   99 1    
    73   36  100 1    
    74   37   38 am   BACKBONE|DICT|INTERRES
    75   37  101 1    
    76   38   39 2    
    77   38   40 1    
    78   40   41 1    
    79   40   42 1    
    80   40  102 1    
    81   41  103 1    
    82   41  104 1    
    83   41  105 1    
    84   42   43 am   BACKBONE|DICT|INTERRES
    85   42  106 1    
    86   43   44 2    
    87   43   45 1    
    88   45   46 1    
    89   45   49 1    
    90   45  107 1    
    91   46   47 1    
    92   46  108 1    
    93   46  109 1    
    94   47   48 1    
    95   48  110 1    
    96   48  111 1    
    97   49   50 am   BACKBONE|DICT|INTERRES
    98   49  112 1    
    99   50   51 2    
   100   50   52 1    
   101   52   53 1    
   102   52   54 1    
   103   52  113 1    
   104   53  114 1    
   105   53  115 1    
   106   53  116 1    
   107   54   55 am   BACKBONE|DICT|INTERRES
   108   54  117 1    
   109   55   56 2    
   110   55   57 1    
   111   57   58 1    
   112   57   59 1    
   113   57  118 1    
   114   58  119 1    
   115   58  120 1    
   116   58  121 1    
   117   59   60 am   BACKBONE|DICT|INTERRES
   118   59  122 1    
   119   60   61 2    
   120   60   62 1    
   121   62   63 1    
   122   62   64 1    
   123   62  123 1    
   124   63  124 1    
   125   63  125 1    
   126   63  126 1    
   127   64   65 am   BACKBONE|DICT|INTERRES
   128   64  127 1    
   129   65   66 2    
@<TRIPOS>SUBSTRUCTURE
     1 UNK         1 GROUP             0       ****    0 ROOT    
