@<TRIPOS>MOLECULE
3R135
127   129    1
SMALL
USER_CHARGES


@<TRIPOS>ATOM
      1 CA        -77.9005   21.8757  -70.5392 C.3       0 UNK        -0.1998 
      2 C         -79.3043   22.4141  -70.7676 C.2       0 UNK         0.4909 
      3 O         -80.2762   21.6664  -70.6572 O.2       0 UNK        -0.5240 
      4 N         -79.4217   23.7029  -71.1085 N.am      1 UNK        -0.4739 
      5 CA        -80.6703   24.4374  -71.3637 C.3       1 UNK         0.0864 
      6 C6        -80.4850   25.9585  -71.1034 C.3       11 UNK        -0.0881 
      7 S7        -79.0655   26.6846  -71.9934 S.3       11 UNK        -0.2682 
      8 C8        -79.3791   28.4625  -71.7635 C.3       11 UNK         0.0289 
      9 C9        -78.2995   29.2929  -72.4421 C.ar      11 UNK        -0.0687 
     10 C10       -78.5873   30.0532  -73.5808 C.ar      11 UNK        -0.0823 
     11 C11       -77.5831   30.7751  -74.2359 C.ar      11 UNK        -0.0830 
     12 C12       -76.2840   30.7519  -73.7122 C.ar      11 UNK        -0.1021 
     13 C13       -75.9889   30.0137  -72.5628 C.ar      11 UNK        -0.0753 
     14 C14       -77.0003   29.2895  -71.9304 C.ar      11 UNK        -0.0933 
     15 C15       -74.5685   29.9628  -72.0303 C.3       11 UNK         0.0166 
     16 S16       -74.0786   31.5212  -71.2278 S.3       11 UNK        -0.2615 
     17 C17       -72.5352   31.0326  -70.3762 C.3       11 UNK        -0.0865 
     18 CA        -71.2472   31.2799  -71.2205 C.3       10 UNK         0.0862 
     19 C         -69.9396   31.1669  -70.3755 C.2       10 UNK         0.5551 
     20 N         -68.8258   30.7189  -70.9421 N.am      10 UNK        -0.7319 
     21 O         -69.9214   31.5214  -69.1991 O.2       10 UNK        -0.5018 
     22 N         -71.2382   30.5130  -72.4815 N.am      10 UNK        -0.4509 
     23 C         -71.2384   29.1778  -72.5857 C.2       10 UNK         0.4899 
     24 O         -71.1472   28.4013  -71.6321 O.2       10 UNK        -0.4839 
     25 CA        -71.4033   28.6124  -73.9991 C.3       9 UNK         0.0222 
     26 CB        -70.0456   28.1822  -74.5781 C.3       9 UNK        -0.1966 
     27 N         -72.2926   27.4542  -73.9260 N.am      9 UNK        -0.4218 
     28 C         -73.4138   27.2884  -74.6353 C.2       9 UNK         0.5020 
     29 O         -73.8293   28.0876  -75.4773 O.2       9 UNK        -0.5274 
     30 CA        -74.2173   26.0055  -74.3608 C.3       8 UNK         0.0270 
     31 CB        -75.5644   26.3285  -73.6913 C.3       8 UNK        -0.1976 
     32 N         -74.4531   25.2790  -75.6092 N.am      8 UNK        -0.4313 
     33 C         -73.4828   24.6694  -76.3104 C.2       8 UNK         0.5041 
     34 O         -72.3249   24.5569  -75.9043 O.2       8 UNK        -0.5577 
     35 CA        -73.8275   24.0982  -77.6934 C.3       7 UNK         0.0284 
     36 CB        -74.0392   22.5760  -77.6249 C.3       7 UNK        -0.1958 
     37 N         -74.9950   24.7556  -78.2858 N.am      7 UNK        -0.4454 
     38 C         -75.0821   25.1486  -79.5633 C.2       7 UNK         0.5089 
     39 O         -74.2275   24.9179  -80.4194 O.2       7 UNK        -0.5125 
     40 CA        -76.3255   25.9646  -79.9427 C.3       6 UNK         0.0408 
     41 CB        -77.5340   25.0422  -80.1699 C.3       6 UNK        -0.1791 
     42 N         -76.6408   26.9413  -78.8999 N.am      6 UNK        -0.4762 
     43 C         -76.1700   28.1956  -78.8408 C.2       6 UNK         0.5007 
     44 O         -75.4468   28.6777  -79.7142 O.2       6 UNK        -0.5032 
     45 CA        -76.5201   29.0519  -77.5950 C.3       5 UNK         0.0783 
     46 C46       -77.0395   30.4728  -77.9606 C.3       11 UNK        -0.0857 
     47 S47       -76.5957   31.7264  -76.7105 S.3       11 UNK        -0.2512 
     48 C48       -77.9361   31.6065  -75.4718 C.3       11 UNK         0.0225 
     49 N         -77.3860   28.3648  -76.6248 N.am      5 UNK        -0.4615 
     50 C         -78.6593   27.9832  -76.7986 C.2       4 UNK         0.5053 
     51 O         -79.3074   28.1674  -77.8296 O.2       4 UNK        -0.5105 
     52 CA        -79.2994   27.2132  -75.6347 C.3       4 UNK         0.0263 
     53 CB        -80.7202   27.7367  -75.3526 C.3       4 UNK        -0.1981 
     54 N         -79.3791   25.7693  -75.8703 N.am      4 UNK        -0.4224 
     55 C         -78.4077   24.9426  -76.2844 C.2       3 UNK         0.4895 
     56 O         -77.2421   25.2886  -76.5092 O.2       3 UNK        -0.5091 
     57 CA        -78.8178   23.4734  -76.4872 C.3       3 UNK         0.0250 
     58 CB        -77.6088   22.5245  -76.5177 C.3       3 UNK        -0.1996 
     59 N         -79.7460   23.0341  -75.4426 N.am      3 UNK        -0.4254 
     60 C         -81.0425   22.7503  -75.6265 C.2       2 UNK         0.5004 
     61 O         -81.6138   22.8242  -76.7146 O.2       2 UNK        -0.5226 
     62 CA        -81.8470   22.3192  -74.3867 C.3       2 UNK         0.0269 
     63 CB        -81.9356   20.7863  -74.3126 C.3       2 UNK        -0.1926 
     64 N         -81.3069   22.8279  -73.1216 N.am      2 UNK        -0.4687 
     65 C         -81.2944   24.1139  -72.7457 C.2       1 UNK         0.5165 
     66 O         -81.7512   25.0136  -73.4518 O.2       1 UNK        -0.5079 
     67 H67       -77.8072   21.4924  -69.5235 H         1 UNK         0.0900 
     68 H68       -77.6937   21.0603  -71.2318 H         1 UNK         0.0900 
     69 H69       -77.1410   22.6442  -70.6828 H         1 UNK         0.0900 
     70 H70       -78.5873   24.2642  -71.2129 H         1 UNK         0.2959 
     71 H71       -81.4079   24.0873  -70.6379 H         1 UNK         0.1079 
     72 H72       -81.3935   26.5125  -71.3478 H         1 UNK         0.0837 
     73 H73       -80.3225   26.1227  -70.0371 H         1 UNK         0.0837 
     74 H74       -79.4020   28.6936  -70.6975 H         1 UNK         0.0685 
     75 H75       -80.3648   28.7096  -72.1607 H         1 UNK         0.0685 
     76 H76       -79.5985   30.0844  -73.9575 H         1 UNK         0.1434 
     77 H77       -75.4932   31.3122  -74.1911 H         1 UNK         0.1329 
     78 H78       -76.7758   28.7026  -71.0503 H         1 UNK         0.1335 
     79 H79       -73.9086   29.7691  -72.8727 H         1 UNK         0.0680 
     80 H80       -74.4467   29.1309  -71.3349 H         1 UNK         0.0680 
     81 H81       -72.4987   31.6190  -69.4564 H         1 UNK         0.1032 
     82 H82       -72.5981   29.9929  -70.0523 H         1 UNK         0.1032 
     83 H83       -71.2695   32.3261  -71.5278 H         1 UNK         0.0461 
     84 H84       -67.9814   30.6585  -70.3953 H         1 UNK         0.3453 
     85 H85       -68.8257   30.4338  -71.9081 H         1 UNK         0.3453 
     86 H86       -71.2922   31.0678  -73.3238 H         1 UNK         0.2984 
     87 H87       -71.8320   29.3848  -74.6415 H         1 UNK         0.0554 
     88 H88       -70.1588   27.7644  -75.5787 H         1 UNK         0.0847 
     89 H89       -69.5596   27.4295  -73.9557 H         1 UNK         0.0847 
     90 H90       -69.3659   29.0316  -74.6560 H         1 UNK         0.0847 
     91 H91       -72.0545   26.7772  -73.2132 H         1 UNK         0.3141 
     92 H92       -73.6498   25.3567  -73.6900 H         1 UNK         0.0743 
     93 H93       -75.4127   26.8107  -72.7251 H         1 UNK         0.0784 
     94 H94       -76.1688   27.0033  -74.2967 H         1 UNK         0.0784 
     95 H95       -76.1503   25.4263  -73.5142 H         1 UNK         0.0784 
     96 H96       -75.3983   25.3230  -75.9732 H         1 UNK         0.3213 
     97 H97       -72.9556   24.2879  -78.3236 H         1 UNK         0.0855 
     98 H98       -74.7806   22.3008  -76.8763 H         1 UNK         0.0814 
     99 H99       -73.1109   22.0730  -77.3513 H         1 UNK         0.0814 
    100 H100      -74.3561   22.1705  -78.5858 H         1 UNK         0.0814 
    101 H101      -75.7664   24.9802  -77.6662 H         1 UNK         0.3105 
    102 H102      -76.1202   26.4853  -80.8805 H         1 UNK         0.0547 
    103 H103      -77.7769   24.4584  -79.2826 H         1 UNK         0.0837 
    104 H104      -78.4201   25.6127  -80.4483 H         1 UNK         0.0837 
    105 H105      -77.3360   24.3365  -80.9778 H         1 UNK         0.0837 
    106 H106      -77.1944   26.6120  -78.1185 H         1 UNK         0.3020 
    107 H107      -75.5593   29.1740  -77.0928 H         1 UNK         0.1245 
    108 H108      -78.1152   30.4846  -78.1379 H         1 UNK         0.0781 
    109 H109      -76.5949   30.8258  -78.8926 H         1 UNK         0.0781 
    110 H110      -78.1806   32.6154  -75.1374 H         1 UNK         0.0836 
    111 H111      -78.8359   31.2184  -75.9515 H         1 UNK         0.0836 
    112 H112      -76.9377   28.1484  -75.7462 H         1 UNK         0.3022 
    113 H113      -78.6875   27.3723  -74.7473 H         1 UNK         0.0747 
    114 H114      -80.7608   28.8252  -75.3659 H         1 UNK         0.0793 
    115 H115      -81.0747   27.4108  -74.3751 H         1 UNK         0.0793 
    116 H116      -81.4329   27.3881  -76.1009 H         1 UNK         0.0793 
    117 H117      -80.2862   25.3583  -75.6999 H         1 UNK         0.3047 
    118 H118      -79.3002   23.4212  -77.4654 H         1 UNK         0.0822 
    119 H119      -76.9905   22.6239  -75.6245 H         1 UNK         0.0807 
    120 H120      -76.9839   22.7344  -77.3853 H         1 UNK         0.0807 
    121 H121      -77.9218   21.4833  -76.5964 H         1 UNK         0.0807 
    122 H122      -79.3761   22.9733  -74.5045 H         1 UNK         0.2946 
    123 H123      -82.8574   22.7176  -74.5049 H         1 UNK         0.1144 
    124 H124      -82.3591   20.3741  -75.2297 H         1 UNK         0.0793 
    125 H125      -82.5746   20.4651  -73.4898 H         1 UNK         0.0793 
    126 H126      -80.9540   20.3316  -74.1728 H         1 UNK         0.0793 
    127 H127      -80.9464   22.1479  -72.4588 H         1 UNK         0.2896 
@<TRIPOS>BOND
     1    1    2 1    
     2    1   67 1    
     3    1   68 1    
     4    1   69 1    
     5    2    3 2    
     6    2    4 am   BACKBONE|DICT|INTERRES
     7    4    5 1    
     8    4   70 1    
     9    5    6 1    
    10    5   65 1    
    11    5   71 1    
    12    6    7 1    
    13    6   72 1    
    14    6   73 1    
    15    7    8 1    
    16    8    9 1    
    17    8   74 1    
    18    8   75 1    
    19    9   10 ar   
    20    9   14 ar   
    21   10   11 ar   
    22   10   76 1    
    23   11   12 ar   
    24   11   48 1    
    25   12   13 ar   
    26   12   77 1    
    27   13   14 ar   
    28   13   15 1    
    29   14   78 1    
    30   15   16 1    
    31   15   79 1    
    32   15   80 1    
    33   16   17 1    
    34   17   18 1    
    35   17   81 1    
    36   17   82 1    
    37   18   19 1    
    38   18   22 1    
    39   18   83 1    
    40   19   20 am   BACKBONE|DICT|INTERRES
    41   19   21 2    
    42   20   84 1    
    43   20   85 1    
    44   22   23 am   BACKBONE|DICT|INTERRES
    45   22   86 1    
    46   23   24 2    
    47   23   25 1    
    48   25   26 1    
    49   25   27 1    
    50   25   87 1    
    51   26   88 1    
    52   26   89 1    
    53   26   90 1    
    54   27   28 am   BACKBONE|DICT|INTERRES
    55   27   91 1    
    56   28   29 2    
    57   28   30 1    
    58   30   31 1    
    59   30   32 1    
    60   30   92 1    
    61   31   93 1    
    62   31   94 1    
    63   31   95 1    
    64   32   33 am   BACKBONE|DICT|INTERRES
    65   32   96 1    
    66   33   34 2    
    67   33   35 1    
    68   35   36 1    
    69   35   37 1    
    70   35   97 1    
    71   36   98 1    
    72   36   99 1    
    73   36  100 1    
    74   37   38 am   BACKBONE|DICT|INTERRES
    75   37  101 1    
    76   38   39 2    
    77   38   40 1    
    78   40   41 1    
    79   40   42 1    
    80   40  102 1    
    81   41  103 1    
    82   41  104 1    
    83   41  105 1    
    84   42   43 am   BACKBONE|DICT|INTERRES
    85   42  106 1    
    86   43   44 2    
    87   43   45 1    
    88   45   46 1    
    89   45   49 1    
    90   45  107 1    
    91   46   47 1    
    92   46  108 1    
    93   46  109 1    
    94   47   48 1    
    95   48  110 1    
    96   48  111 1    
    97   49   50 am   BACKBONE|DICT|INTERRES
    98   49  112 1    
    99   50   51 2    
   100   50   52 1    
   101   52   53 1    
   102   52   54 1    
   103   52  113 1    
   104   53  114 1    
   105   53  115 1    
   106   53  116 1    
   107   54   55 am   BACKBONE|DICT|INTERRES
   108   54  117 1    
   109   55   56 2    
   110   55   57 1    
   111   57   58 1    
   112   57   59 1    
   113   57  118 1    
   114   58  119 1    
   115   58  120 1    
   116   58  121 1    
   117   59   60 am   BACKBONE|DICT|INTERRES
   118   59  122 1    
   119   60   61 2    
   120   60   62 1    
   121   62   63 1    
   122   62   64 1    
   123   62  123 1    
   124   63  124 1    
   125   63  125 1    
   126   63  126 1    
   127   64   65 am   BACKBONE|DICT|INTERRES
   128   64  127 1    
   129   65   66 2    
@<TRIPOS>SUBSTRUCTURE
     1 UNK         1 GROUP             0       ****    0 ROOT    
