@<TRIPOS>MOLECULE
3R135
127   129    1
SMALL
USER_CHARGES


@<TRIPOS>ATOM
      1 CA        -77.7768   30.6872  -76.1892 C.3       0 UNK        -0.1998 
      2 C         -77.7993   29.3496  -75.4650 C.2       0 UNK         0.4909 
      3 O         -76.7560   28.7156  -75.3243 O.2       0 UNK        -0.5240 
      4 N         -78.9850   28.9074  -75.0219 N.am      1 UNK        -0.4739 
      5 CA        -79.1934   27.6368  -74.3082 C.3       1 UNK         0.0864 
      6 C6        -80.5852   27.5599  -73.6257 C.3       11 UNK        -0.0881 
      7 S7        -81.0209   29.0449  -72.6552 S.3       11 UNK        -0.2682 
      8 C8        -80.5730   28.5524  -70.9592 C.3       11 UNK         0.0289 
      9 C9        -79.0669   28.4372  -70.7644 C.ar      11 UNK        -0.0687 
     10 C10       -78.4987   27.2304  -70.3458 C.ar      11 UNK        -0.0823 
     11 C11       -77.1180   27.1270  -70.1479 C.ar      11 UNK        -0.0830 
     12 C12       -76.3045   28.2390  -70.3841 C.ar      11 UNK        -0.1021 
     13 C13       -76.8556   29.4465  -70.8224 C.ar      11 UNK        -0.0753 
     14 C14       -78.2411   29.5438  -70.9869 C.ar      11 UNK        -0.0933 
     15 C15       -75.9504   30.6383  -71.1110 C.3       11 UNK         0.0166 
     16 S16       -76.2265   31.3158  -72.7799 S.3       11 UNK        -0.2615 
     17 C17       -74.7175   32.3059  -73.0447 C.3       11 UNK        -0.0865 
     18 CA        -73.8924   31.8351  -74.2831 C.3       10 UNK         0.0862 
     19 C         -72.6903   32.7787  -74.5903 C.2       10 UNK         0.5551 
     20 N         -72.9336   34.0779  -74.7080 N.am      10 UNK        -0.7319 
     21 O         -71.5457   32.3608  -74.7534 O.2       10 UNK        -0.5018 
     22 N         -73.5261   30.4079  -74.2462 N.am      10 UNK        -0.4509 
     23 C         -72.8027   29.7877  -73.3030 C.2       10 UNK         0.4899 
     24 O         -72.3787   30.3300  -72.2816 O.2       10 UNK        -0.4839 
     25 CA        -72.4972   28.2963  -73.5317 C.3       9 UNK         0.0222 
     26 CB        -73.6080   27.4280  -72.9248 C.3       9 UNK        -0.1966 
     27 N         -72.3267   27.9516  -74.9454 N.am      9 UNK        -0.4218 
     28 C         -71.2837   28.3414  -75.6966 C.2       9 UNK         0.5020 
     29 O         -70.3239   28.9704  -75.2486 O.2       9 UNK        -0.5274 
     30 CA        -71.2783   27.9670  -77.1933 C.3       8 UNK         0.0270 
     31 CB        -70.2487   26.8574  -77.4671 C.3       8 UNK        -0.1976 
     32 N         -72.5777   27.5422  -77.7155 N.am      8 UNK        -0.4313 
     33 C         -73.6657   28.3156  -77.8267 C.2       8 UNK         0.5041 
     34 O         -73.6805   29.5186  -77.5633 O.2       8 UNK        -0.5577 
     35 CA        -74.9639   27.6218  -78.2821 C.3       7 UNK         0.0284 
     36 CB        -75.1889   27.8530  -79.7853 C.3       7 UNK        -0.1958 
     37 N         -75.0408   26.1791  -77.9986 N.am      7 UNK        -0.4454 
     38 C         -74.9269   25.6137  -76.7872 C.2       7 UNK         0.5089 
     39 O         -74.5926   26.2307  -75.7761 O.2       7 UNK        -0.5125 
     40 CA        -75.2246   24.1057  -76.7161 C.3       6 UNK         0.0408 
     41 CB        -73.9585   23.2642  -76.9731 C.3       6 UNK        -0.1791 
     42 N         -75.9032   23.7544  -75.4608 N.am      6 UNK        -0.4762 
     43 C         -75.3924   23.6332  -74.2236 C.2       6 UNK         0.5007 
     44 O         -74.1892   23.6097  -73.9626 O.2       6 UNK        -0.5032 
     45 CA        -76.4133   23.5151  -73.0713 C.3       5 UNK         0.0783 
     46 C46       -76.5831   24.8700  -72.3356 C.3       11 UNK        -0.0857 
     47 S47       -75.4270   25.0641  -70.9402 S.3       11 UNK        -0.2512 
     48 C48       -76.5037   25.8146  -69.6760 C.3       11 UNK         0.0225 
     49 N         -77.7152   23.0195  -73.5311 N.am      5 UNK        -0.4615 
     50 C         -78.0242   21.7280  -73.6907 C.2       4 UNK         0.5053 
     51 O         -77.2205   20.8125  -73.5132 O.2       4 UNK        -0.5105 
     52 CA        -79.4665   21.3833  -74.0871 C.3       4 UNK         0.0263 
     53 CB        -80.3302   21.1716  -72.8288 C.3       4 UNK        -0.1981 
     54 N         -80.0931   22.3772  -74.9682 N.am      4 UNK        -0.4224 
     55 C         -81.0873   22.0839  -75.8213 C.2       3 UNK         0.4895 
     56 O         -81.5560   20.9525  -75.9574 O.2       3 UNK        -0.5091 
     57 CA        -81.6873   23.2273  -76.6629 C.3       3 UNK         0.0250 
     58 CB        -82.9927   23.7293  -76.0236 C.3       3 UNK        -0.1996 
     59 N         -80.7923   24.3667  -76.8683 N.am      3 UNK        -0.4254 
     60 C         -79.6477   24.3386  -77.5630 C.2       2 UNK         0.5004 
     61 O         -79.2217   23.3403  -78.1431 O.2       2 UNK        -0.5226 
     62 CA        -78.8221   25.6365  -77.6088 C.3       2 UNK         0.0269 
     63 CB        -78.9864   26.3323  -78.9691 C.3       2 UNK        -0.1926 
     64 N         -79.0983   26.6082  -76.5447 N.am      2 UNK        -0.4687 
     65 C         -78.9940   26.4060  -75.2216 C.2       1 UNK         0.5165 
     66 O         -78.7857   25.2995  -74.7208 O.2       1 UNK        -0.5079 
     67 H67       -77.0817   31.3675  -75.6985 H         1 UNK         0.0900 
     68 H68       -77.4461   30.5496  -77.2182 H         1 UNK         0.0900 
     69 H69       -78.7587   31.1595  -76.2050 H         1 UNK         0.0900 
     70 H70       -79.8076   29.4837  -75.1306 H         1 UNK         0.2959 
     71 H71       -78.4297   27.5742  -73.5291 H         1 UNK         0.1079 
     72 H72       -80.6427   26.6815  -72.9796 H         1 UNK         0.0837 
     73 H73       -81.3692   27.4312  -74.3747 H         1 UNK         0.0837 
     74 H74       -81.0775   27.6174  -70.7108 H         1 UNK         0.0685 
     75 H75       -80.9577   29.3012  -70.2656 H         1 UNK         0.0685 
     76 H76       -79.1326   26.3726  -70.1670 H         1 UNK         0.1434 
     77 H77       -75.2374   28.1564  -70.2334 H         1 UNK         0.1329 
     78 H78       -78.6770   30.4778  -71.3144 H         1 UNK         0.1335 
     79 H79       -74.9038   30.3461  -71.0149 H         1 UNK         0.0680 
     80 H80       -76.1291   31.4183  -70.3699 H         1 UNK         0.0680 
     81 H81       -74.1009   32.3025  -72.1449 H         1 UNK         0.1032 
     82 H82       -75.0426   33.3393  -73.1700 H         1 UNK         0.1032 
     83 H83       -74.5405   31.9178  -75.1564 H         1 UNK         0.0461 
     84 H84       -72.1672   34.6988  -74.9167 H         1 UNK         0.3453 
     85 H85       -73.8650   34.4507  -74.6137 H         1 UNK         0.3453 
     86 H86       -73.8015   29.8739  -75.0595 H         1 UNK         0.2984 
     87 H87       -71.5647   28.0608  -73.0148 H         1 UNK         0.0554 
     88 H88       -73.4217   26.3659  -73.0871 H         1 UNK         0.0847 
     89 H89       -74.5857   27.6627  -73.3502 H         1 UNK         0.0847 
     90 H90       -73.6730   27.5835  -71.8486 H         1 UNK         0.0847 
     91 H91       -73.0780   27.4136  -75.3719 H         1 UNK         0.3141 
     92 H92       -70.9760   28.8596  -77.7450 H         1 UNK         0.0743 
     93 H93       -70.5069   25.9315  -76.9513 H         1 UNK         0.0784 
     94 H94       -70.1707   26.6403  -78.5326 H         1 UNK         0.0784 
     95 H95       -69.2553   27.1532  -77.1265 H         1 UNK         0.0784 
     96 H96       -72.6731   26.5657  -77.9522 H         1 UNK         0.3213 
     97 H97       -75.7828   28.0970  -77.7389 H         1 UNK         0.0855 
     98 H98       -74.4094   27.3833  -80.3865 H         1 UNK         0.0814 
     99 H99       -75.1829   28.9184  -80.0206 H         1 UNK         0.0814 
    100 H100      -76.1499   27.4582  -80.1139 H         1 UNK         0.0814 
    101 H101      -75.2748   25.5874  -78.7832 H         1 UNK         0.3105 
    102 H102      -75.9380   23.8638  -77.5051 H         1 UNK         0.0547 
    103 H103      -74.1528   22.2003  -76.8384 H         1 UNK         0.0837 
    104 H104      -73.1382   23.5436  -76.3113 H         1 UNK         0.0837 
    105 H105      -73.6026   23.4017  -77.9946 H         1 UNK         0.0837 
    106 H106      -76.9122   23.7709  -75.5082 H         1 UNK         0.3020 
    107 H107      -76.0106   22.7828  -72.3670 H         1 UNK         0.1245 
    108 H108      -77.5952   24.9468  -71.9361 H         1 UNK         0.0781 
    109 H109      -76.4761   25.7230  -73.0102 H         1 UNK         0.0781 
    110 H110      -75.9166   25.9974  -68.7750 H         1 UNK         0.0836 
    111 H111      -77.2774   25.0981  -69.3958 H         1 UNK         0.0836 
    112 H112      -78.3963   23.7440  -73.7323 H         1 UNK         0.3022 
    113 H113      -79.4087   20.4335  -74.6239 H         1 UNK         0.0747 
    114 H114      -81.3184   20.7877  -73.0827 H         1 UNK         0.0793 
    115 H115      -79.8696   20.4493  -72.1532 H         1 UNK         0.0793 
    116 H116      -80.4645   22.1005  -72.2732 H         1 UNK         0.0793 
    117 H117      -79.7467   23.3276  -74.9337 H         1 UNK         0.3047 
    118 H118      -81.9248   22.8130  -77.6451 H         1 UNK         0.0822 
    119 H119      -83.4836   24.4727  -76.6520 H         1 UNK         0.0807 
    120 H120      -82.8168   24.1778  -75.0448 H         1 UNK         0.0807 
    121 H121      -83.6996   22.9101  -75.8837 H         1 UNK         0.0807 
    122 H122      -81.0566   25.2381  -76.4332 H         1 UNK         0.2946 
    123 H123      -77.7798   25.3426  -77.5040 H         1 UNK         0.1144 
    124 H124      -78.3410   27.2068  -79.0490 H         1 UNK         0.0793 
    125 H125      -80.0144   26.6584  -79.1324 H         1 UNK         0.0793 
    126 H126      -78.7231   25.6610  -79.7879 H         1 UNK         0.0793 
    127 H127      -79.2960   27.5521  -76.8443 H         1 UNK         0.2896 
@<TRIPOS>BOND
     1    1    2 1    
     2    1   67 1    
     3    1   68 1    
     4    1   69 1    
     5    2    3 2    
     6    2    4 am   BACKBONE|DICT|INTERRES
     7    4    5 1    
     8    4   70 1    
     9    5    6 1    
    10    5   65 1    
    11    5   71 1    
    12    6    7 1    
    13    6   72 1    
    14    6   73 1    
    15    7    8 1    
    16    8    9 1    
    17    8   74 1    
    18    8   75 1    
    19    9   10 ar   
    20    9   14 ar   
    21   10   11 ar   
    22   10   76 1    
    23   11   12 ar   
    24   11   48 1    
    25   12   13 ar   
    26   12   77 1    
    27   13   14 ar   
    28   13   15 1    
    29   14   78 1    
    30   15   16 1    
    31   15   79 1    
    32   15   80 1    
    33   16   17 1    
    34   17   18 1    
    35   17   81 1    
    36   17   82 1    
    37   18   19 1    
    38   18   22 1    
    39   18   83 1    
    40   19   20 am   BACKBONE|DICT|INTERRES
    41   19   21 2    
    42   20   84 1    
    43   20   85 1    
    44   22   23 am   BACKBONE|DICT|INTERRES
    45   22   86 1    
    46   23   24 2    
    47   23   25 1    
    48   25   26 1    
    49   25   27 1    
    50   25   87 1    
    51   26   88 1    
    52   26   89 1    
    53   26   90 1    
    54   27   28 am   BACKBONE|DICT|INTERRES
    55   27   91 1    
    56   28   29 2    
    57   28   30 1    
    58   30   31 1    
    59   30   32 1    
    60   30   92 1    
    61   31   93 1    
    62   31   94 1    
    63   31   95 1    
    64   32   33 am   BACKBONE|DICT|INTERRES
    65   32   96 1    
    66   33   34 2    
    67   33   35 1    
    68   35   36 1    
    69   35   37 1    
    70   35   97 1    
    71   36   98 1    
    72   36   99 1    
    73   36  100 1    
    74   37   38 am   BACKBONE|DICT|INTERRES
    75   37  101 1    
    76   38   39 2    
    77   38   40 1    
    78   40   41 1    
    79   40   42 1    
    80   40  102 1    
    81   41  103 1    
    82   41  104 1    
    83   41  105 1    
    84   42   43 am   BACKBONE|DICT|INTERRES
    85   42  106 1    
    86   43   44 2    
    87   43   45 1    
    88   45   46 1    
    89   45   49 1    
    90   45  107 1    
    91   46   47 1    
    92   46  108 1    
    93   46  109 1    
    94   47   48 1    
    95   48  110 1    
    96   48  111 1    
    97   49   50 am   BACKBONE|DICT|INTERRES
    98   49  112 1    
    99   50   51 2    
   100   50   52 1    
   101   52   53 1    
   102   52   54 1    
   103   52  113 1    
   104   53  114 1    
   105   53  115 1    
   106   53  116 1    
   107   54   55 am   BACKBONE|DICT|INTERRES
   108   54  117 1    
   109   55   56 2    
   110   55   57 1    
   111   57   58 1    
   112   57   59 1    
   113   57  118 1    
   114   58  119 1    
   115   58  120 1    
   116   58  121 1    
   117   59   60 am   BACKBONE|DICT|INTERRES
   118   59  122 1    
   119   60   61 2    
   120   60   62 1    
   121   62   63 1    
   122   62   64 1    
   123   62  123 1    
   124   63  124 1    
   125   63  125 1    
   126   63  126 1    
   127   64   65 am   BACKBONE|DICT|INTERRES
   128   64  127 1    
   129   65   66 2    
@<TRIPOS>SUBSTRUCTURE
     1 UNK         1 GROUP             0       ****    0 ROOT    
