@<TRIPOS>MOLECULE
3R135
127   129    1
SMALL
USER_CHARGES


@<TRIPOS>ATOM
      1 CA        -82.4727   23.1132  -70.9183 C.3       0 UNK        -0.1998 
      2 C         -81.8419   24.2622  -71.6906 C.2       0 UNK         0.4909 
      3 O         -80.6320   24.2486  -71.9135 O.2       0 UNK        -0.5240 
      4 N         -82.6556   25.2521  -72.0872 N.am      1 UNK        -0.4739 
      5 CA        -82.2895   26.4109  -72.9161 C.3       1 UNK         0.0864 
      6 C6        -81.1041   27.2288  -72.3243 C.3       11 UNK        -0.0881 
      7 S7        -81.1655   29.0125  -72.7155 S.3       11 UNK        -0.2682 
      8 C8        -80.3997   29.7448  -71.2327 C.3       11 UNK         0.0289 
      9 C9        -78.9095   29.4405  -71.1479 C.ar      11 UNK        -0.0687 
     10 C10       -78.4658   28.2752  -70.5168 C.ar      11 UNK        -0.0823 
     11 C11       -77.1022   27.9811  -70.4410 C.ar      11 UNK        -0.0830 
     12 C12       -76.1730   28.8818  -70.9697 C.ar      11 UNK        -0.1021 
     13 C13       -76.6021   30.0574  -71.5919 C.ar      11 UNK        -0.0753 
     14 C14       -77.9718   30.3279  -71.6865 C.ar      11 UNK        -0.0933 
     15 C15       -75.5837   31.0426  -72.1422 C.3       11 UNK         0.0166 
     16 S16       -75.0416   30.5857  -73.8170 S.3       11 UNK        -0.2615 
     17 C17       -73.9729   32.0152  -74.2139 C.3       11 UNK        -0.0865 
     18 CA        -72.4622   31.6807  -74.3326 C.3       10 UNK         0.0862 
     19 C         -71.7987   31.3116  -72.9713 C.2       10 UNK         0.5551 
     20 N         -70.9991   30.2548  -72.8798 N.am      10 UNK        -0.7319 
     21 O         -71.9980   32.0112  -71.9813 O.2       10 UNK        -0.5018 
     22 N         -72.2119   30.7205  -75.4170 N.am      10 UNK        -0.4509 
     23 C         -71.1195   30.6999  -76.1888 C.2       10 UNK         0.4899 
     24 O         -70.2120   31.5308  -76.1208 O.2       10 UNK        -0.4839 
     25 CA        -71.0367   29.5362  -77.1924 C.3       9 UNK         0.0222 
     26 CB        -69.6967   29.4865  -77.9575 C.3       9 UNK        -0.1966 
     27 N         -71.3345   28.2399  -76.5705 N.am      9 UNK        -0.4218 
     28 C         -70.6620   27.6381  -75.5740 C.2       9 UNK         0.5020 
     29 O         -69.6950   28.1472  -75.0055 O.2       9 UNK        -0.5274 
     30 CA        -71.1451   26.2511  -75.0961 C.3       8 UNK         0.0270 
     31 CB        -71.5360   26.3039  -73.6086 C.3       8 UNK        -0.1976 
     32 N         -72.2711   25.7143  -75.8663 N.am      8 UNK        -0.4313 
     33 C         -72.1931   25.2319  -77.1174 C.2       8 UNK         0.5041 
     34 O         -71.1283   25.0625  -77.7118 O.2       8 UNK        -0.5577 
     35 CA        -73.5156   24.9330  -77.8575 C.3       7 UNK         0.0284 
     36 CB        -73.7890   23.4208  -77.8812 C.3       7 UNK        -0.1958 
     37 N         -74.6847   25.6210  -77.2996 N.am      7 UNK        -0.4454 
     38 C         -74.8212   26.9487  -77.1633 C.2       7 UNK         0.5089 
     39 O         -74.0258   27.7646  -77.6297 O.2       7 UNK        -0.5125 
     40 CA        -75.9846   27.4522  -76.2882 C.3       6 UNK         0.0408 
     41 CB        -77.0809   28.0845  -77.1579 C.3       6 UNK        -0.1791 
     42 N         -76.5681   26.4356  -75.3982 N.am      6 UNK        -0.4762 
     43 C         -75.9013   25.8008  -74.4181 C.2       6 UNK         0.5007 
     44 O         -74.6992   25.9763  -74.2174 O.2       6 UNK        -0.5032 
     45 CA        -76.6474   24.7501  -73.5717 C.3       5 UNK         0.0783 
     46 C46       -77.1930   25.3280  -72.2436 C.3       11 UNK        -0.0857 
     47 S47       -75.8688   25.5523  -71.0036 S.3       11 UNK        -0.2512 
     48 C48       -76.6402   26.6809  -69.7996 C.3       11 UNK         0.0225 
     49 N         -77.6879   24.0667  -74.3467 N.am      5 UNK        -0.4615 
     50 C         -77.8573   22.7364  -74.3647 C.2       4 UNK         0.5053 
     51 O         -77.1940   21.9558  -73.6807 O.2       4 UNK        -0.5105 
     52 CA        -78.9223   22.1516  -75.3150 C.3       4 UNK         0.0263 
     53 CB        -80.2020   21.7942  -74.5429 C.3       4 UNK        -0.1981 
     54 N         -79.2680   23.0264  -76.4367 N.am      4 UNK        -0.4224 
     55 C         -78.4255   23.4061  -77.4080 C.2       3 UNK         0.4895 
     56 O         -77.2730   22.9874  -77.5149 O.2       3 UNK        -0.5091 
     57 CA        -78.9281   24.4603  -78.4132 C.3       3 UNK         0.0250 
     58 CB        -79.2967   23.7900  -79.7465 C.3       3 UNK        -0.1996 
     59 N         -80.0583   25.2882  -77.9658 N.am      3 UNK        -0.4254 
     60 C         -80.1172   26.0190  -76.8427 C.2       2 UNK         0.5004 
     61 O         -79.2315   26.0153  -75.9838 O.2       2 UNK        -0.5226 
     62 CA        -81.3578   26.9098  -76.6377 C.3       2 UNK         0.0269 
     63 CB        -82.5831   26.4998  -77.4875 C.3       2 UNK        -0.1926 
     64 N         -81.7118   27.0138  -75.2179 N.am      2 UNK        -0.4687 
     65 C         -82.0755   26.0179  -74.3979 C.2       1 UNK         0.5165 
     66 O         -82.2647   24.8581  -74.7772 O.2       1 UNK        -0.5079 
     67 H67       -82.3190   22.1762  -71.4531 H         1 UNK         0.0900 
     68 H68       -82.0112   23.0245  -69.9352 H         1 UNK         0.0900 
     69 H69       -83.5445   23.2531  -70.7793 H         1 UNK         0.0900 
     70 H70       -83.6426   25.1754  -71.8840 H         1 UNK         0.2959 
     71 H71       -83.1767   27.0463  -72.9058 H         1 UNK         0.1079 
     72 H72       -81.1237   27.1353  -71.2383 H         1 UNK         0.0837 
     73 H73       -80.1414   26.8228  -72.6413 H         1 UNK         0.0837 
     74 H74       -80.5549   30.8245  -71.2578 H         1 UNK         0.0685 
     75 H75       -80.9128   29.3883  -70.3381 H         1 UNK         0.0685 
     76 H76       -79.1839   27.5859  -70.0957 H         1 UNK         0.1434 
     77 H77       -75.1160   28.6599  -70.9098 H         1 UNK         0.1329 
     78 H78       -78.3083   31.2329  -72.1737 H         1 UNK         0.1335 
     79 H79       -76.0107   32.0467  -72.1601 H         1 UNK         0.0680 
     80 H80       -74.7165   31.0875  -71.4814 H         1 UNK         0.0680 
     81 H81       -74.1251   32.8125  -73.4840 H         1 UNK         0.1032 
     82 H82       -74.3217   32.4316  -75.1601 H         1 UNK         0.1032 
     83 H83       -71.9794   32.6178  -74.6166 H         1 UNK         0.0461 
     84 H84       -70.5735   30.0383  -71.9928 H         1 UNK         0.3453 
     85 H85       -70.7750   29.7009  -73.6941 H         1 UNK         0.3453 
     86 H86       -72.9005   29.9893  -75.5215 H         1 UNK         0.2984 
     87 H87       -71.8256   29.7092  -77.9259 H         1 UNK         0.0554 
     88 H88       -69.6813   28.6676  -78.6767 H         1 UNK         0.0847 
     89 H89       -68.8483   29.3577  -77.2847 H         1 UNK         0.0847 
     90 H90       -69.5311   30.4094  -78.5145 H         1 UNK         0.0847 
     91 H91       -72.1621   27.7783  -76.9363 H         1 UNK         0.3141 
     92 H92       -70.3034   25.5638  -75.2019 H         1 UNK         0.0743 
     93 H93       -70.6867   26.5956  -72.9893 H         1 UNK         0.0784 
     94 H94       -72.3327   27.0268  -73.4267 H         1 UNK         0.0784 
     95 H95       -71.8776   25.3325  -73.2506 H         1 UNK         0.0784 
     96 H96       -73.1855   25.7996  -75.4278 H         1 UNK         0.3213 
     97 H97       -73.3928   25.2778  -78.8863 H         1 UNK         0.0855 
     98 H98       -73.9675   23.0266  -76.8799 H         1 UNK         0.0814 
     99 H99       -72.9422   22.8760  -78.3011 H         1 UNK         0.0814 
    100 H100      -74.6588   23.1844  -78.4945 H         1 UNK         0.0814 
    101 H101      -75.3967   25.0347  -76.8872 H         1 UNK         0.3105 
    102 H102      -75.5772   28.2359  -75.6474 H         1 UNK         0.0547 
    103 H103      -76.6771   28.8983  -77.7617 H         1 UNK         0.0837 
    104 H104      -77.5214   27.3609  -77.8429 H         1 UNK         0.0837 
    105 H105      -77.8801   28.5035  -76.5464 H         1 UNK         0.0837 
    106 H106      -77.5645   26.2617  -75.5267 H         1 UNK         0.3020 
    107 H107      -75.8817   24.0130  -73.3173 H         1 UNK         0.1245 
    108 H108      -77.9251   24.6460  -71.8084 H         1 UNK         0.0781 
    109 H109      -77.7229   26.2638  -72.4243 H         1 UNK         0.0781 
    110 H110      -75.9197   26.9054  -69.0120 H         1 UNK         0.0836 
    111 H111      -77.4717   26.1653  -69.3162 H         1 UNK         0.0836 
    112 H112      -78.2899   24.6463  -74.9231 H         1 UNK         0.3022 
    113 H113      -78.5084   21.2309  -75.7316 H         1 UNK         0.0747 
    114 H114      -80.9182   21.2731  -75.1783 H         1 UNK         0.0793 
    115 H115      -79.9817   21.1403  -73.6980 H         1 UNK         0.0793 
    116 H116      -80.6907   22.6842  -74.1464 H         1 UNK         0.0793 
    117 H117      -80.1866   23.4465  -76.4140 H         1 UNK         0.3047 
    118 H118      -78.0906   25.1357  -78.5965 H         1 UNK         0.0822 
    119 H119      -79.5317   24.5291  -80.5127 H         1 UNK         0.0807 
    120 H120      -80.1573   23.1283  -79.6405 H         1 UNK         0.0807 
    121 H121      -78.4685   23.1889  -80.1253 H         1 UNK         0.0807 
    122 H122      -80.8431   25.3416  -78.5991 H         1 UNK         0.2946 
    123 H123      -81.0572   27.9113  -76.9498 H         1 UNK         0.1144 
    124 H124      -83.4453   27.1256  -77.2568 H         1 UNK         0.0793 
    125 H125      -82.8748   25.4629  -77.3164 H         1 UNK         0.0793 
    126 H126      -82.3872   26.6187  -78.5538 H         1 UNK         0.0793 
    127 H127      -81.5449   27.9177  -74.7927 H         1 UNK         0.2896 
@<TRIPOS>BOND
     1    1    2 1    
     2    1   67 1    
     3    1   68 1    
     4    1   69 1    
     5    2    3 2    
     6    2    4 am   BACKBONE|DICT|INTERRES
     7    4    5 1    
     8    4   70 1    
     9    5    6 1    
    10    5   65 1    
    11    5   71 1    
    12    6    7 1    
    13    6   72 1    
    14    6   73 1    
    15    7    8 1    
    16    8    9 1    
    17    8   74 1    
    18    8   75 1    
    19    9   10 ar   
    20    9   14 ar   
    21   10   11 ar   
    22   10   76 1    
    23   11   12 ar   
    24   11   48 1    
    25   12   13 ar   
    26   12   77 1    
    27   13   14 ar   
    28   13   15 1    
    29   14   78 1    
    30   15   16 1    
    31   15   79 1    
    32   15   80 1    
    33   16   17 1    
    34   17   18 1    
    35   17   81 1    
    36   17   82 1    
    37   18   19 1    
    38   18   22 1    
    39   18   83 1    
    40   19   20 am   BACKBONE|DICT|INTERRES
    41   19   21 2    
    42   20   84 1    
    43   20   85 1    
    44   22   23 am   BACKBONE|DICT|INTERRES
    45   22   86 1    
    46   23   24 2    
    47   23   25 1    
    48   25   26 1    
    49   25   27 1    
    50   25   87 1    
    51   26   88 1    
    52   26   89 1    
    53   26   90 1    
    54   27   28 am   BACKBONE|DICT|INTERRES
    55   27   91 1    
    56   28   29 2    
    57   28   30 1    
    58   30   31 1    
    59   30   32 1    
    60   30   92 1    
    61   31   93 1    
    62   31   94 1    
    63   31   95 1    
    64   32   33 am   BACKBONE|DICT|INTERRES
    65   32   96 1    
    66   33   34 2    
    67   33   35 1    
    68   35   36 1    
    69   35   37 1    
    70   35   97 1    
    71   36   98 1    
    72   36   99 1    
    73   36  100 1    
    74   37   38 am   BACKBONE|DICT|INTERRES
    75   37  101 1    
    76   38   39 2    
    77   38   40 1    
    78   40   41 1    
    79   40   42 1    
    80   40  102 1    
    81   41  103 1    
    82   41  104 1    
    83   41  105 1    
    84   42   43 am   BACKBONE|DICT|INTERRES
    85   42  106 1    
    86   43   44 2    
    87   43   45 1    
    88   45   46 1    
    89   45   49 1    
    90   45  107 1    
    91   46   47 1    
    92   46  108 1    
    93   46  109 1    
    94   47   48 1    
    95   48  110 1    
    96   48  111 1    
    97   49   50 am   BACKBONE|DICT|INTERRES
    98   49  112 1    
    99   50   51 2    
   100   50   52 1    
   101   52   53 1    
   102   52   54 1    
   103   52  113 1    
   104   53  114 1    
   105   53  115 1    
   106   53  116 1    
   107   54   55 am   BACKBONE|DICT|INTERRES
   108   54  117 1    
   109   55   56 2    
   110   55   57 1    
   111   57   58 1    
   112   57   59 1    
   113   57  118 1    
   114   58  119 1    
   115   58  120 1    
   116   58  121 1    
   117   59   60 am   BACKBONE|DICT|INTERRES
   118   59  122 1    
   119   60   61 2    
   120   60   62 1    
   121   62   63 1    
   122   62   64 1    
   123   62  123 1    
   124   63  124 1    
   125   63  125 1    
   126   63  126 1    
   127   64   65 am   BACKBONE|DICT|INTERRES
   128   64  127 1    
   129   65   66 2    
@<TRIPOS>SUBSTRUCTURE
     1 UNK         1 GROUP             0       ****    0 ROOT    
