@<TRIPOS>MOLECULE
3R135
127   129    1
SMALL
USER_CHARGES


@<TRIPOS>ATOM
      1 CA        -85.7916   29.1616  -75.7685 C.3       0 UNK        -0.1998 
      2 C         -84.6140   28.2612  -75.4279 C.2       0 UNK         0.4909 
      3 O         -84.8112   27.0762  -75.1566 O.2       0 UNK        -0.5240 
      4 N         -83.3919   28.8130  -75.4507 N.am      1 UNK        -0.4739 
      5 CA        -82.1019   28.1644  -75.1659 C.3       1 UNK         0.0864 
      6 C6        -82.0404   27.5106  -73.7572 C.3       11 UNK        -0.0881 
      7 S7        -80.3329   27.2747  -73.1619 S.3       11 UNK        -0.2682 
      8 C8        -80.1753   28.6505  -71.9838 C.3       11 UNK         0.0289 
      9 C9        -78.7529   28.7789  -71.4571 C.ar      11 UNK        -0.0687 
     10 C10       -78.2190   27.7888  -70.6264 C.ar      11 UNK        -0.0823 
     11 C11       -76.9211   27.9101  -70.1201 C.ar      11 UNK        -0.0830 
     12 C12       -76.1671   29.0451  -70.4276 C.ar      11 UNK        -0.1021 
     13 C13       -76.6844   30.0379  -71.2641 C.ar      11 UNK        -0.0753 
     14 C14       -77.9764   29.8966  -71.7807 C.ar      11 UNK        -0.0933 
     15 C15       -75.8559   31.2713  -71.5942 C.3       11 UNK         0.0166 
     16 S16       -74.7241   30.9740  -72.9879 S.3       11 UNK        -0.2615 
     17 C17       -73.4121   29.9819  -72.1915 C.3       11 UNK        -0.0865 
     18 CA        -72.0348   30.1538  -72.8798 C.3       10 UNK         0.0862 
     19 C         -70.9251   29.3956  -72.1015 C.2       10 UNK         0.5551 
     20 N         -70.3496   30.0225  -71.0843 N.am      10 UNK        -0.7319 
     21 O         -70.6092   28.2408  -72.3801 O.2       10 UNK        -0.5018 
     22 N         -72.0905   29.7680  -74.2952 N.am      10 UNK        -0.4509 
     23 C         -71.1925   30.1253  -75.2198 C.2       10 UNK         0.4899 
     24 O         -70.2134   30.8384  -74.9916 O.2       10 UNK        -0.4839 
     25 CA        -71.4653   29.6101  -76.6426 C.3       9 UNK         0.0222 
     26 CB        -70.3951   30.0339  -77.6724 C.3       9 UNK        -0.1966 
     27 N         -71.7002   28.1628  -76.6620 N.am      9 UNK        -0.4218 
     28 C         -70.8181   27.1808  -76.4122 C.2       9 UNK         0.5020 
     29 O         -69.6295   27.3797  -76.1568 O.2       9 UNK        -0.5274 
     30 CA        -71.3234   25.7208  -76.4521 C.3       8 UNK         0.0270 
     31 CB        -71.0947   25.0302  -75.0962 C.3       8 UNK        -0.1976 
     32 N         -72.7344   25.5758  -76.8219 N.am      8 UNK        -0.4313 
     33 C         -73.2493   25.7826  -78.0417 C.2       8 UNK         0.5041 
     34 O         -72.5683   26.0247  -79.0385 O.2       8 UNK        -0.5577 
     35 CA        -74.7856   25.7749  -78.1621 C.3       7 UNK         0.0284 
     36 CB        -75.2829   24.3874  -78.5913 C.3       7 UNK        -0.1958 
     37 N         -75.4788   26.2004  -76.9372 N.am      7 UNK        -0.4454 
     38 C         -75.3514   27.4142  -76.3765 C.2       7 UNK         0.5089 
     39 O         -74.6260   28.3009  -76.8273 O.2       7 UNK        -0.5125 
     40 CA        -76.1247   27.6759  -75.0764 C.3       6 UNK         0.0408 
     41 CB        -77.5672   28.0949  -75.3770 C.3       6 UNK        -0.1791 
     42 N         -76.1146   26.5179  -74.1828 N.am      6 UNK        -0.4762 
     43 C         -75.0417   26.1387  -73.4737 C.2       6 UNK         0.5007 
     44 O         -73.9702   26.7444  -73.4856 O.2       6 UNK        -0.5032 
     45 CA        -75.1641   24.8205  -72.6789 C.3       5 UNK         0.0783 
     46 C46       -75.9501   24.9914  -71.3556 C.3       11 UNK        -0.0857 
     47 S47       -75.0104   25.8925  -70.0783 S.3       11 UNK        -0.2512 
     48 C48       -76.3310   26.8228  -69.2336 C.3       11 UNK         0.0225 
     49 N         -75.7404   23.7448  -73.4904 N.am      5 UNK        -0.4615 
     50 C         -75.2096   23.2573  -74.6196 C.2       4 UNK         0.5053 
     51 O         -74.1502   23.6485  -75.1060 O.2       4 UNK        -0.5105 
     52 CA        -76.0091   22.1617  -75.3445 C.3       4 UNK         0.0263 
     53 CB        -75.5777   20.7728  -74.8476 C.3       4 UNK        -0.1981 
     54 N         -77.4647   22.2923  -75.2215 N.am      4 UNK        -0.4224 
     55 C         -78.1939   23.3514  -75.6008 C.2       3 UNK         0.4895 
     56 O         -77.7213   24.3983  -76.0552 O.2       3 UNK        -0.5091 
     57 CA        -79.7046   23.2152  -75.3896 C.3       3 UNK         0.0250 
     58 CB        -80.0719   23.4484  -73.9130 C.3       3 UNK        -0.1996 
     59 N         -80.4164   24.1758  -76.2286 N.am      3 UNK        -0.4254 
     60 C         -81.6216   23.9725  -76.7739 C.2       2 UNK         0.5004 
     61 O         -82.2684   22.9326  -76.6302 O.2       2 UNK        -0.5226 
     62 CA        -82.2227   25.1461  -77.5685 C.3       2 UNK         0.0269 
     63 CB        -83.5118   24.7624  -78.3193 C.3       2 UNK        -0.1926 
     64 N         -82.5222   26.2484  -76.6559 N.am      2 UNK        -0.4687 
     65 C         -81.6536   27.1919  -76.2787 C.2       1 UNK         0.5165 
     66 O         -80.5338   27.3072  -76.7762 O.2       1 UNK        -0.5079 
     67 H67       -86.3192   28.7747  -76.6399 H         1 UNK         0.0900 
     68 H68       -85.4766   30.1816  -75.9876 H         1 UNK         0.0900 
     69 H69       -86.4911   29.1948  -74.9336 H         1 UNK         0.0900 
     70 H70       -83.3159   29.7863  -75.7140 H         1 UNK         0.2959 
     71 H71       -81.3790   28.9824  -75.1752 H         1 UNK         0.1079 
     72 H72       -82.5779   28.1276  -73.0356 H         1 UNK         0.0837 
     73 H73       -82.5469   26.5436  -73.7481 H         1 UNK         0.0837 
     74 H74       -80.8580   28.4911  -71.1479 H         1 UNK         0.0685 
     75 H75       -80.4888   29.5753  -72.4709 H         1 UNK         0.0685 
     76 H76       -78.8162   26.9206  -70.3829 H         1 UNK         0.1434 
     77 H77       -75.1700   29.1456  -70.0226 H         1 UNK         0.1329 
     78 H78       -78.3808   30.6644  -72.4259 H         1 UNK         0.1335 
     79 H79       -76.5141   32.1016  -71.8544 H         1 UNK         0.0680 
     80 H80       -75.2939   31.5977  -70.7179 H         1 UNK         0.0680 
     81 H81       -73.7172   28.9350  -72.1861 H         1 UNK         0.1032 
     82 H82       -73.3374   30.2807  -71.1446 H         1 UNK         0.1032 
     83 H83       -71.7850   31.2167  -72.8483 H         1 UNK         0.0461 
     84 H84       -69.6366   29.5445  -70.5557 H         1 UNK         0.3453 
     85 H85       -70.6018   30.9682  -70.8425 H         1 UNK         0.3453 
     86 H86       -72.8451   29.1489  -74.5539 H         1 UNK         0.2984 
     87 H87       -72.4057   30.0675  -76.9537 H         1 UNK         0.0554 
     88 H88       -70.3361   31.1206  -77.7438 H         1 UNK         0.0847 
     89 H89       -70.6302   29.6563  -78.6674 H         1 UNK         0.0847 
     90 H90       -69.4011   29.6762  -77.4032 H         1 UNK         0.0847 
     91 H91       -72.6658   27.9003  -76.8352 H         1 UNK         0.3141 
     92 H92       -70.7260   25.1995  -77.2026 H         1 UNK         0.0743 
     93 H93       -70.0435   25.0662  -74.8070 H         1 UNK         0.0784 
     94 H94       -71.6670   25.5092  -74.3007 H         1 UNK         0.0784 
     95 H95       -71.3826   23.9794  -75.1313 H         1 UNK         0.0784 
     96 H96       -73.3658   25.2875  -76.0805 H         1 UNK         0.3213 
     97 H97       -75.0553   26.4877  -78.9443 H         1 UNK         0.0855 
     98 H98       -74.9246   23.6120  -77.9168 H         1 UNK         0.0814 
     99 H99       -74.9166   24.1383  -79.5880 H         1 UNK         0.0814 
    100 H100      -76.3717   24.3387  -78.6226 H         1 UNK         0.0814 
    101 H101      -76.1287   25.5398  -76.5202 H         1 UNK         0.3105 
    102 H102      -75.6388   28.5099  -74.5658 H         1 UNK         0.0547 
    103 H103      -77.6033   28.8878  -76.1251 H         1 UNK         0.0837 
    104 H104      -78.1551   27.2585  -75.7542 H         1 UNK         0.0837 
    105 H105      -78.0543   28.4784  -74.4821 H         1 UNK         0.0837 
    106 H106      -76.9417   25.9377  -74.1746 H         1 UNK         0.3020 
    107 H107      -74.1467   24.5074  -72.4318 H         1 UNK         0.1245 
    108 H108      -76.1841   24.0130  -70.9327 H         1 UNK         0.0781 
    109 H109      -76.9121   25.4715  -71.5389 H         1 UNK         0.0781 
    110 H110      -77.1030   26.1288  -68.8971 H         1 UNK         0.0836 
    111 H111      -75.9193   27.2800  -68.3327 H         1 UNK         0.0836 
    112 H112      -76.6154   23.3569  -73.1718 H         1 UNK         0.3022 
    113 H113      -75.7705   22.2234  -76.4057 H         1 UNK         0.0747 
    114 H114      -74.4996   20.6393  -74.9509 H         1 UNK         0.0793 
    115 H115      -76.0552   19.9785  -75.4217 H         1 UNK         0.0793 
    116 H116      -75.8248   20.6237  -73.7957 H         1 UNK         0.0793 
    117 H117      -77.9498   21.4889  -74.8477 H         1 UNK         0.3047 
    118 H118      -79.9917   22.2014  -75.6781 H         1 UNK         0.0822 
    119 H119      -81.1493   23.3904  -73.7567 H         1 UNK         0.0807 
    120 H120      -79.7374   24.4261  -73.5665 H         1 UNK         0.0807 
    121 H121      -79.6128   22.6992  -73.2671 H         1 UNK         0.0807 
    122 H122      -79.9229   25.0433  -76.4083 H         1 UNK         0.2946 
    123 H123      -81.4831   25.4612  -78.3085 H         1 UNK         0.1144 
    124 H124      -83.3311   23.9368  -79.0089 H         1 UNK         0.0793 
    125 H125      -83.8898   25.5987  -78.9075 H         1 UNK         0.0793 
    126 H126      -84.3024   24.4515  -77.6350 H         1 UNK         0.0793 
    127 H127      -83.4228   26.2324  -76.1843 H         1 UNK         0.2896 
@<TRIPOS>BOND
     1    1    2 1    
     2    1   67 1    
     3    1   68 1    
     4    1   69 1    
     5    2    3 2    
     6    2    4 am   BACKBONE|DICT|INTERRES
     7    4    5 1    
     8    4   70 1    
     9    5    6 1    
    10    5   65 1    
    11    5   71 1    
    12    6    7 1    
    13    6   72 1    
    14    6   73 1    
    15    7    8 1    
    16    8    9 1    
    17    8   74 1    
    18    8   75 1    
    19    9   10 ar   
    20    9   14 ar   
    21   10   11 ar   
    22   10   76 1    
    23   11   12 ar   
    24   11   48 1    
    25   12   13 ar   
    26   12   77 1    
    27   13   14 ar   
    28   13   15 1    
    29   14   78 1    
    30   15   16 1    
    31   15   79 1    
    32   15   80 1    
    33   16   17 1    
    34   17   18 1    
    35   17   81 1    
    36   17   82 1    
    37   18   19 1    
    38   18   22 1    
    39   18   83 1    
    40   19   20 am   BACKBONE|DICT|INTERRES
    41   19   21 2    
    42   20   84 1    
    43   20   85 1    
    44   22   23 am   BACKBONE|DICT|INTERRES
    45   22   86 1    
    46   23   24 2    
    47   23   25 1    
    48   25   26 1    
    49   25   27 1    
    50   25   87 1    
    51   26   88 1    
    52   26   89 1    
    53   26   90 1    
    54   27   28 am   BACKBONE|DICT|INTERRES
    55   27   91 1    
    56   28   29 2    
    57   28   30 1    
    58   30   31 1    
    59   30   32 1    
    60   30   92 1    
    61   31   93 1    
    62   31   94 1    
    63   31   95 1    
    64   32   33 am   BACKBONE|DICT|INTERRES
    65   32   96 1    
    66   33   34 2    
    67   33   35 1    
    68   35   36 1    
    69   35   37 1    
    70   35   97 1    
    71   36   98 1    
    72   36   99 1    
    73   36  100 1    
    74   37   38 am   BACKBONE|DICT|INTERRES
    75   37  101 1    
    76   38   39 2    
    77   38   40 1    
    78   40   41 1    
    79   40   42 1    
    80   40  102 1    
    81   41  103 1    
    82   41  104 1    
    83   41  105 1    
    84   42   43 am   BACKBONE|DICT|INTERRES
    85   42  106 1    
    86   43   44 2    
    87   43   45 1    
    88   45   46 1    
    89   45   49 1    
    90   45  107 1    
    91   46   47 1    
    92   46  108 1    
    93   46  109 1    
    94   47   48 1    
    95   48  110 1    
    96   48  111 1    
    97   49   50 am   BACKBONE|DICT|INTERRES
    98   49  112 1    
    99   50   51 2    
   100   50   52 1    
   101   52   53 1    
   102   52   54 1    
   103   52  113 1    
   104   53  114 1    
   105   53  115 1    
   106   53  116 1    
   107   54   55 am   BACKBONE|DICT|INTERRES
   108   54  117 1    
   109   55   56 2    
   110   55   57 1    
   111   57   58 1    
   112   57   59 1    
   113   57  118 1    
   114   58  119 1    
   115   58  120 1    
   116   58  121 1    
   117   59   60 am   BACKBONE|DICT|INTERRES
   118   59  122 1    
   119   60   61 2    
   120   60   62 1    
   121   62   63 1    
   122   62   64 1    
   123   62  123 1    
   124   63  124 1    
   125   63  125 1    
   126   63  126 1    
   127   64   65 am   BACKBONE|DICT|INTERRES
   128   64  127 1    
   129   65   66 2    
@<TRIPOS>SUBSTRUCTURE
     1 UNK         1 GROUP             0       ****    0 ROOT    
