@<TRIPOS>MOLECULE
3R135
127   129    1
SMALL
USER_CHARGES


@<TRIPOS>ATOM
      1 CA        -83.1760   25.8881  -67.4630 C.3       0 UNK        -0.1998 
      2 C         -82.8557   26.0342  -68.9433 C.2       0 UNK         0.4909 
      3 O         -83.7713   26.0785  -69.7664 O.2       0 UNK        -0.5240 
      4 N         -81.5645   26.1193  -69.2859 N.am      1 UNK        -0.4739 
      5 CA        -81.0702   26.2169  -70.6646 C.3       1 UNK         0.0864 
      6 C6        -79.6301   26.7890  -70.7294 C.3       11 UNK        -0.0881 
      7 S7        -79.4924   28.4378  -69.9646 S.3       11 UNK        -0.2682 
      8 C8        -80.0107   29.5255  -71.3363 C.3       11 UNK         0.0289 
      9 C9        -79.0224   29.5876  -72.4988 C.ar      11 UNK        -0.0687 
     10 C10       -79.4951   29.5768  -73.8156 C.ar      11 UNK        -0.0823 
     11 C11       -78.6154   29.7240  -74.8941 C.ar      11 UNK        -0.0830 
     12 C12       -77.2440   29.8537  -74.6486 C.ar      11 UNK        -0.1021 
     13 C13       -76.7579   29.8573  -73.3372 C.ar      11 UNK        -0.0753 
     14 C14       -77.6502   29.7296  -72.2696 C.ar      11 UNK        -0.0933 
     15 C15       -75.2733   30.0245  -73.0607 C.3       11 UNK         0.0166 
     16 S16       -74.8444   31.7784  -72.8587 S.3       11 UNK        -0.2615 
     17 C17       -73.2190   31.6695  -72.0359 C.3       11 UNK        -0.0865 
     18 CA        -72.0474   31.6237  -73.0477 C.3       10 UNK         0.0862 
     19 C         -70.6974   31.9499  -72.3540 C.2       10 UNK         0.5551 
     20 N         -70.3190   33.2196  -72.3054 N.am      10 UNK        -0.7319 
     21 O         -70.0136   31.0745  -71.8263 O.2       10 UNK        -0.5018 
     22 N         -71.9945   30.3278  -73.7350 N.am      10 UNK        -0.4509 
     23 C         -71.4091   30.1119  -74.9146 C.2       10 UNK         0.4899 
     24 O         -70.9376   31.0106  -75.6126 O.2       10 UNK        -0.4839 
     25 CA        -71.3282   28.6623  -75.4274 C.3       9 UNK         0.0222 
     26 CB        -69.9260   28.0744  -75.1783 C.3       9 UNK        -0.1966 
     27 N         -72.3698   27.7346  -74.9603 N.am      9 UNK        -0.4218 
     28 C         -72.5981   27.2411  -73.7334 C.2       9 UNK         0.5020 
     29 O         -72.0624   27.6648  -72.7093 O.2       9 UNK        -0.5274 
     30 CA        -73.5735   26.0502  -73.6368 C.3       8 UNK         0.0270 
     31 CB        -75.0247   26.5251  -73.4648 C.3       8 UNK        -0.1976 
     32 N         -73.4838   25.1515  -74.7929 N.am      8 UNK        -0.4313 
     33 C         -72.4036   24.4186  -75.1069 C.2       8 UNK         0.5041 
     34 O         -71.3971   24.3383  -74.4017 O.2       8 UNK        -0.5577 
     35 CA        -72.4406   23.6688  -76.4469 C.3       7 UNK         0.0284 
     36 CB        -73.1383   22.3077  -76.2923 C.3       7 UNK        -0.1958 
     37 N         -73.1068   24.4639  -77.4816 N.am      7 UNK        -0.4454 
     38 C         -72.5108   25.4483  -78.1716 C.2       7 UNK         0.5089 
     39 O         -71.3171   25.7301  -78.0686 O.2       7 UNK        -0.5125 
     40 CA        -73.3908   26.2711  -79.1322 C.3       6 UNK         0.0408 
     41 CB        -73.3466   25.6706  -80.5460 C.3       6 UNK        -0.1791 
     42 N         -74.7854   26.3840  -78.6963 N.am      6 UNK        -0.4762 
     43 C         -75.1937   27.0530  -77.6072 C.2       6 UNK         0.5007 
     44 O         -74.4356   27.6914  -76.8792 O.2       6 UNK        -0.5032 
     45 CA        -76.6863   26.9454  -77.2322 C.3       5 UNK         0.0783 
     46 C46       -77.4809   28.1231  -77.8383 C.3       11 UNK        -0.0857 
     47 S47       -79.1775   28.2133  -77.1751 S.3       11 UNK        -0.2512 
     48 C48       -79.1645   29.8175  -76.3129 C.3       11 UNK         0.0225 
     49 N         -77.2653   25.6433  -77.5908 N.am      5 UNK        -0.4615 
     50 C         -76.8426   24.4591  -77.1332 C.2       4 UNK         0.5053 
     51 O         -75.9040   24.3405  -76.3424 O.2       4 UNK        -0.5105 
     52 CA        -77.5691   23.2126  -77.6732 C.3       4 UNK         0.0263 
     53 CB        -76.9607   21.8998  -77.1468 C.3       4 UNK        -0.1981 
     54 N         -78.9957   23.2323  -77.3518 N.am      4 UNK        -0.4224 
     55 C         -79.9393   23.9325  -77.9978 C.2       3 UNK         0.4895 
     56 O         -79.7064   24.6524  -78.9697 O.2       3 UNK        -0.5091 
     57 CA        -81.3798   23.8184  -77.4631 C.3       3 UNK         0.0250 
     58 CB        -82.1675   22.7666  -78.2611 C.3       3 UNK        -0.1996 
     59 N         -81.4273   23.4828  -76.0350 N.am      3 UNK        -0.4254 
     60 C         -81.1050   24.3433  -75.0608 C.2       2 UNK         0.5004 
     61 O         -80.8418   25.5332  -75.2549 O.2       2 UNK        -0.5226 
     62 CA        -81.0161   23.7733  -73.6408 C.3       2 UNK         0.0269 
     63 CB        -79.7335   22.9289  -73.4801 C.3       2 UNK        -0.1926 
     64 N         -81.0017   24.9032  -72.7176 N.am      2 UNK        -0.4687 
     65 C         -81.1465   24.8572  -71.3908 C.2       1 UNK         0.5165 
     66 O         -81.3025   23.8098  -70.7562 O.2       1 UNK        -0.5079 
     67 H67       -82.2750   25.8819  -66.8498 H         1 UNK         0.0900 
     68 H68       -83.7131   24.9567  -67.2860 H         1 UNK         0.0900 
     69 H69       -83.8056   26.7135  -67.1318 H         1 UNK         0.0900 
     70 H70       -80.8533   26.0672  -68.5710 H         1 UNK         0.2959 
     71 H71       -81.7303   26.8987  -71.2054 H         1 UNK         0.1079 
     72 H72       -78.9331   26.1222  -70.2180 H         1 UNK         0.0837 
     73 H73       -79.2757   26.8563  -71.7599 H         1 UNK         0.0837 
     74 H74       -80.9958   29.2093  -71.6822 H         1 UNK         0.0685 
     75 H75       -80.1361   30.5352  -70.9436 H         1 UNK         0.0685 
     76 H76       -80.5568   29.4901  -74.0034 H         1 UNK         0.1434 
     77 H77       -76.5556   29.9793  -75.4728 H         1 UNK         0.1329 
     78 H78       -77.2752   29.7602  -71.2558 H         1 UNK         0.1335 
     79 H79       -75.0001   29.4715  -72.1610 H         1 UNK         0.0680 
     80 H80       -74.6897   29.6025  -73.8796 H         1 UNK         0.0680 
     81 H81       -73.1892   30.8135  -71.3590 H         1 UNK         0.1032 
     82 H82       -73.1360   32.5521  -71.3983 H         1 UNK         0.1032 
     83 H83       -72.2236   32.3968  -73.7991 H         1 UNK         0.0461 
     84 H84       -69.4531   33.4563  -71.8464 H         1 UNK         0.3453 
     85 H85       -70.8768   33.9464  -72.7269 H         1 UNK         0.3453 
     86 H86       -72.2339   29.5090  -73.1851 H         1 UNK         0.2984 
     87 H87       -71.4688   28.7173  -76.5081 H         1 UNK         0.0554 
     88 H88       -69.8290   27.0834  -75.6228 H         1 UNK         0.0847 
     89 H89       -69.7053   27.9886  -74.1137 H         1 UNK         0.0847 
     90 H90       -69.1533   28.7051  -75.6199 H         1 UNK         0.0847 
     91 H91       -72.9989   27.4236  -75.6972 H         1 UNK         0.3141 
     92 H92       -73.3003   25.4716  -72.7519 H         1 UNK         0.0743 
     93 H93       -75.3316   27.1901  -74.2711 H         1 UNK         0.0784 
     94 H94       -75.7202   25.6857  -73.4397 H         1 UNK         0.0784 
     95 H95       -75.1448   27.0689  -72.5276 H         1 UNK         0.0784 
     96 H96       -74.2999   25.0830  -75.3933 H         1 UNK         0.3213 
     97 H97       -71.4096   23.4825  -76.7566 H         1 UNK         0.0855 
     98 H98       -74.1491   22.4091  -75.8975 H         1 UNK         0.0814 
     99 H99       -72.5870   21.6697  -75.6004 H         1 UNK         0.0814 
    100 H100      -73.1969   21.7786  -77.2435 H         1 UNK         0.0814 
    101 H101      -74.1045   24.3318  -77.5823 H         1 UNK         0.3105 
    102 H102      -72.9722   27.2789  -79.1782 H         1 UNK         0.0547 
    103 H103      -72.3195   25.6003  -80.9071 H         1 UNK         0.0837 
    104 H104      -73.7701   24.6658  -80.5736 H         1 UNK         0.0837 
    105 H105      -73.8955   26.2875  -81.2576 H         1 UNK         0.0837 
    106 H106      -75.4778   25.8901  -79.2412 H         1 UNK         0.3020 
    107 H107      -76.7410   27.0279  -76.1449 H         1 UNK         0.1245 
    108 H108      -76.9711   29.0700  -77.6534 H         1 UNK         0.0781 
    109 H109      -77.5426   28.0254  -78.9238 H         1 UNK         0.0781 
    110 H110      -80.1882   30.1939  -76.2837 H         1 UNK         0.0836 
    111 H111      -78.6020   30.5526  -76.8903 H         1 UNK         0.0836 
    112 H112      -78.0736   25.6559  -78.2043 H         1 UNK         0.3022 
    113 H113      -77.4555   23.2171  -78.7594 H         1 UNK         0.0747 
    114 H114      -77.4860   21.0308  -77.5436 H         1 UNK         0.0793 
    115 H115      -75.9176   21.8066  -77.4499 H         1 UNK         0.0793 
    116 H116      -76.9935   21.8442  -76.0578 H         1 UNK         0.0793 
    117 H117      -79.2787   22.6907  -76.5495 H         1 UNK         0.3047 
    118 H118      -81.8607   24.7886  -77.6081 H         1 UNK         0.0822 
    119 H119      -83.2084   22.7223  -77.9398 H         1 UNK         0.0807 
    120 H120      -81.7386   21.7696  -78.1528 H         1 UNK         0.0807 
    121 H121      -82.1692   23.0064  -79.3255 H         1 UNK         0.0807 
    122 H122      -81.6548   22.5274  -75.7970 H         1 UNK         0.2946 
    123 H123      -81.9001   23.1622  -73.4449 H         1 UNK         0.1144 
    124 H124      -79.7291   22.0803  -74.1648 H         1 UNK         0.0793 
    125 H125      -79.6424   22.5203  -72.4739 H         1 UNK         0.0793 
    126 H126      -78.8371   23.5175  -73.6820 H         1 UNK         0.0793 
    127 H127      -80.8906   25.7933  -73.1912 H         1 UNK         0.2896 
@<TRIPOS>BOND
     1    1    2 1    
     2    1   67 1    
     3    1   68 1    
     4    1   69 1    
     5    2    3 2    
     6    2    4 am   BACKBONE|DICT|INTERRES
     7    4    5 1    
     8    4   70 1    
     9    5    6 1    
    10    5   65 1    
    11    5   71 1    
    12    6    7 1    
    13    6   72 1    
    14    6   73 1    
    15    7    8 1    
    16    8    9 1    
    17    8   74 1    
    18    8   75 1    
    19    9   10 ar   
    20    9   14 ar   
    21   10   11 ar   
    22   10   76 1    
    23   11   12 ar   
    24   11   48 1    
    25   12   13 ar   
    26   12   77 1    
    27   13   14 ar   
    28   13   15 1    
    29   14   78 1    
    30   15   16 1    
    31   15   79 1    
    32   15   80 1    
    33   16   17 1    
    34   17   18 1    
    35   17   81 1    
    36   17   82 1    
    37   18   19 1    
    38   18   22 1    
    39   18   83 1    
    40   19   20 am   BACKBONE|DICT|INTERRES
    41   19   21 2    
    42   20   84 1    
    43   20   85 1    
    44   22   23 am   BACKBONE|DICT|INTERRES
    45   22   86 1    
    46   23   24 2    
    47   23   25 1    
    48   25   26 1    
    49   25   27 1    
    50   25   87 1    
    51   26   88 1    
    52   26   89 1    
    53   26   90 1    
    54   27   28 am   BACKBONE|DICT|INTERRES
    55   27   91 1    
    56   28   29 2    
    57   28   30 1    
    58   30   31 1    
    59   30   32 1    
    60   30   92 1    
    61   31   93 1    
    62   31   94 1    
    63   31   95 1    
    64   32   33 am   BACKBONE|DICT|INTERRES
    65   32   96 1    
    66   33   34 2    
    67   33   35 1    
    68   35   36 1    
    69   35   37 1    
    70   35   97 1    
    71   36   98 1    
    72   36   99 1    
    73   36  100 1    
    74   37   38 am   BACKBONE|DICT|INTERRES
    75   37  101 1    
    76   38   39 2    
    77   38   40 1    
    78   40   41 1    
    79   40   42 1    
    80   40  102 1    
    81   41  103 1    
    82   41  104 1    
    83   41  105 1    
    84   42   43 am   BACKBONE|DICT|INTERRES
    85   42  106 1    
    86   43   44 2    
    87   43   45 1    
    88   45   46 1    
    89   45   49 1    
    90   45  107 1    
    91   46   47 1    
    92   46  108 1    
    93   46  109 1    
    94   47   48 1    
    95   48  110 1    
    96   48  111 1    
    97   49   50 am   BACKBONE|DICT|INTERRES
    98   49  112 1    
    99   50   51 2    
   100   50   52 1    
   101   52   53 1    
   102   52   54 1    
   103   52  113 1    
   104   53  114 1    
   105   53  115 1    
   106   53  116 1    
   107   54   55 am   BACKBONE|DICT|INTERRES
   108   54  117 1    
   109   55   56 2    
   110   55   57 1    
   111   57   58 1    
   112   57   59 1    
   113   57  118 1    
   114   58  119 1    
   115   58  120 1    
   116   58  121 1    
   117   59   60 am   BACKBONE|DICT|INTERRES
   118   59  122 1    
   119   60   61 2    
   120   60   62 1    
   121   62   63 1    
   122   62   64 1    
   123   62  123 1    
   124   63  124 1    
   125   63  125 1    
   126   63  126 1    
   127   64   65 am   BACKBONE|DICT|INTERRES
   128   64  127 1    
   129   65   66 2    
@<TRIPOS>SUBSTRUCTURE
     1 UNK         1 GROUP             0       ****    0 ROOT    
