@<TRIPOS>MOLECULE
3R135
127   129    1
SMALL
USER_CHARGES


@<TRIPOS>ATOM
      1 CA        -85.1692   26.0295  -69.0185 C.3       0 UNK        -0.1998 
      2 C         -84.1227   25.9480  -70.1208 C.2       0 UNK         0.4909 
      3 O         -83.3343   25.0026  -70.1303 O.2       0 UNK        -0.5240 
      4 N         -84.1298   26.9336  -71.0324 N.am      1 UNK        -0.4739 
      5 CA        -83.2528   27.1129  -72.2025 C.3       1 UNK         0.0864 
      6 C6        -81.8970   27.8144  -71.8737 C.3       11 UNK        -0.0881 
      7 S7        -80.7274   26.8948  -70.8056 S.3       11 UNK        -0.2682 
      8 C8        -79.2984   26.5683  -71.8901 C.3       11 UNK         0.0289 
      9 C9        -78.3376   27.7475  -71.9680 C.ar      11 UNK        -0.0687 
     10 C10       -78.5976   28.8141  -72.8305 C.ar      11 UNK        -0.0823 
     11 C11       -77.7296   29.9059  -72.9019 C.ar      11 UNK        -0.0830 
     12 C12       -76.5822   29.9248  -72.1026 C.ar      11 UNK        -0.1021 
     13 C13       -76.2878   28.8467  -71.2600 C.ar      11 UNK        -0.0753 
     14 C14       -77.1731   27.7648  -71.1940 C.ar      11 UNK        -0.0933 
     15 C15       -75.0311   28.8523  -70.3985 C.3       11 UNK         0.0166 
     16 S16       -73.5559   28.2983  -71.3195 S.3       11 UNK        -0.2615 
     17 C17       -72.9669   29.8593  -72.0644 C.3       11 UNK        -0.0865 
     18 CA        -73.2903   29.9465  -73.5819 C.3       10 UNK         0.0862 
     19 C         -73.2307   31.3935  -74.1600 C.2       10 UNK         0.5551 
     20 N         -73.3431   31.5532  -75.4723 N.am      10 UNK        -0.7319 
     21 O         -73.0936   32.3726  -73.4300 O.2       10 UNK        -0.5018 
     22 N         -72.5521   28.9604  -74.3930 N.am      10 UNK        -0.4509 
     23 C         -71.2429   29.0083  -74.6771 C.2       10 UNK         0.4899 
     24 O         -70.4627   29.8254  -74.1840 O.2       10 UNK        -0.4839 
     25 CA        -70.7276   27.9908  -75.7156 C.3       9 UNK         0.0222 
     26 CB        -69.1868   27.9393  -75.8000 C.3       9 UNK        -0.1966 
     27 N         -71.2831   26.6437  -75.5500 N.am      9 UNK        -0.4218 
     28 C         -71.1719   25.8406  -74.4782 C.2       9 UNK         0.5020 
     29 O         -70.5539   26.1433  -73.4565 O.2       9 UNK        -0.5274 
     30 CA        -71.8465   24.4575  -74.5547 C.3       8 UNK         0.0270 
     31 CB        -72.6756   24.1667  -73.2894 C.3       8 UNK        -0.1976 
     32 N         -72.7066   24.3393  -75.7374 N.am      8 UNK        -0.4313 
     33 C         -72.4427   23.5689  -76.8008 C.2       8 UNK         0.5041 
     34 O         -71.4726   22.8130  -76.8707 O.2       8 UNK        -0.5577 
     35 CA        -73.3958   23.6517  -78.0074 C.3       7 UNK         0.0284 
     36 CB        -74.4218   22.5064  -77.9832 C.3       7 UNK        -0.1958 
     37 N         -74.0901   24.9329  -78.1815 N.am      7 UNK        -0.4454 
     38 C         -73.4858   26.0882  -78.4980 C.2       7 UNK         0.5089 
     39 O         -72.2668   26.2536  -78.4635 O.2       7 UNK        -0.5125 
     40 CA        -74.3937   27.2520  -78.9225 C.3       6 UNK         0.0408 
     41 CB        -75.0790   26.9542  -80.2667 C.3       6 UNK        -0.1791 
     42 N         -75.4064   27.5038  -77.9027 N.am      6 UNK        -0.4762 
     43 C         -75.2833   28.4124  -76.9252 C.2       6 UNK         0.5007 
     44 O         -74.3633   29.2282  -76.8618 O.2       6 UNK        -0.5032 
     45 CA        -76.3293   28.3530  -75.7873 C.3       5 UNK         0.0783 
     46 C46       -77.5084   29.3259  -76.0411 C.3       11 UNK        -0.0857 
     47 S47       -77.1152   30.9916  -75.4004 S.3       11 UNK        -0.2512 
     48 C48       -78.0513   31.0642  -73.8377 C.3       11 UNK         0.0225 
     49 N         -76.7637   26.9835  -75.4861 N.am      5 UNK        -0.4615 
     50 C         -75.9182   26.0045  -75.1250 C.2       4 UNK         0.5053 
     51 O         -74.7164   26.1882  -74.9358 O.2       4 UNK        -0.5105 
     52 CA        -76.4574   24.5651  -75.0442 C.3       4 UNK         0.0263 
     53 CB        -76.7150   24.1658  -73.5851 C.3       4 UNK        -0.1981 
     54 N         -77.6669   24.3207  -75.8341 N.am      4 UNK        -0.4224 
     55 C         -77.8340   24.5598  -77.1437 C.2       3 UNK         0.4895 
     56 O         -76.9262   24.9395  -77.8861 O.2       3 UNK        -0.5091 
     57 CA        -79.2549   24.3948  -77.7202 C.3       3 UNK         0.0250 
     58 CB        -79.2931   23.2162  -78.7066 C.3       3 UNK        -0.1996 
     59 N         -80.3201   24.2197  -76.7202 N.am      3 UNK        -0.4254 
     60 C         -80.6683   25.1031  -75.7724 C.2       2 UNK         0.5004 
     61 O         -80.1179   26.1985  -75.6164 O.2       2 UNK        -0.5226 
     62 CA        -81.7663   24.6518  -74.7984 C.3       2 UNK         0.0269 
     63 CB        -81.3168   23.4189  -73.9852 C.3       2 UNK        -0.1926 
     64 N         -82.0707   25.7516  -73.8879 N.am      2 UNK        -0.4687 
     65 C         -83.1689   25.8769  -73.1354 C.2       1 UNK         0.5165 
     66 O         -84.1171   25.0892  -73.1998 O.2       1 UNK        -0.5079 
     67 H67       -85.8106   25.1490  -69.0448 H         1 UNK         0.0900 
     68 H68       -84.6839   26.0687  -68.0437 H         1 UNK         0.0900 
     69 H69       -85.8013   26.9118  -69.1172 H         1 UNK         0.0900 
     70 H70       -84.8420   27.6448  -70.9431 H         1 UNK         0.2959 
     71 H71       -83.8007   27.8303  -72.8159 H         1 UNK         0.1079 
     72 H72       -81.4062   28.1136  -72.7969 H         1 UNK         0.0837 
     73 H73       -82.1082   28.7548  -71.3625 H         1 UNK         0.0837 
     74 H74       -78.7792   25.6982  -71.4869 H         1 UNK         0.0685 
     75 H75       -79.6256   26.2858  -72.8891 H         1 UNK         0.0685 
     76 H76       -79.4762   28.7989  -73.4566 H         1 UNK         0.1434 
     77 H77       -75.9130   30.7729  -72.1474 H         1 UNK         0.1329 
     78 H78       -76.9565   26.9353  -70.5348 H         1 UNK         0.1335 
     79 H79       -75.1675   28.1855  -69.5457 H         1 UNK         0.0680 
     80 H80       -74.8690   29.8431  -69.9722 H         1 UNK         0.0680 
     81 H81       -73.4136   30.6933  -71.5216 H         1 UNK         0.1032 
     82 H82       -71.8927   29.9464  -71.8964 H         1 UNK         0.1032 
     83 H83       -74.3370   29.6779  -73.6840 H         1 UNK         0.0461 
     84 H84       -73.3120   32.4792  -75.8666 H         1 UNK         0.3453 
     85 H85       -73.5395   30.7511  -76.0646 H         1 UNK         0.3453 
     86 H86       -73.1152   28.2523  -74.8431 H         1 UNK         0.2984 
     87 H87       -71.0934   28.3439  -76.6811 H         1 UNK         0.0554 
     88 H88       -68.7759   28.9166  -76.0562 H         1 UNK         0.0847 
     89 H89       -68.8545   27.2396  -76.5668 H         1 UNK         0.0847 
     90 H90       -68.7392   27.6374  -74.8525 H         1 UNK         0.0847 
     91 H91       -71.7760   26.2850  -76.3596 H         1 UNK         0.3141 
     92 H92       -71.0409   23.7221  -74.5971 H         1 UNK         0.0743 
     93 H93       -73.2202   23.2264  -73.3750 H         1 UNK         0.0784 
     94 H94       -72.0307   24.0887  -72.4134 H         1 UNK         0.0784 
     95 H95       -73.3964   24.9581  -73.0840 H         1 UNK         0.0784 
     96 H96       -73.5182   24.9523  -75.7410 H         1 UNK         0.3213 
     97 H97       -72.7755   23.5106  -78.8955 H         1 UNK         0.0855 
     98 H98       -75.1034   22.5802  -77.1379 H         1 UNK         0.0814 
     99 H99       -73.9231   21.5387  -77.9129 H         1 UNK         0.0814 
    100 H100      -75.0218   22.4933  -78.8934 H         1 UNK         0.0814 
    101 H101      -75.1078   24.9000  -78.1895 H         1 UNK         0.3105 
    102 H102      -73.7671   28.1359  -79.0599 H         1 UNK         0.0547 
    103 H103      -75.6656   27.8079  -80.6060 H         1 UNK         0.0837 
    104 H104      -74.3414   26.7407  -81.0414 H         1 UNK         0.0837 
    105 H105      -75.7480   26.0948  -80.2068 H         1 UNK         0.0837 
    106 H106      -76.1624   26.8295  -77.8457 H         1 UNK         0.3020 
    107 H107      -75.8193   28.6705  -74.8795 H         1 UNK         0.1245 
    108 H108      -78.4233   28.9693  -75.5691 H         1 UNK         0.0781 
    109 H109      -77.7505   29.4000  -77.1032 H         1 UNK         0.0781 
    110 H110      -79.1185   31.0890  -74.0641 H         1 UNK         0.0836 
    111 H111      -77.8285   32.0081  -73.3382 H         1 UNK         0.0836 
    112 H112      -77.7424   26.7660  -75.6209 H         1 UNK         0.3022 
    113 H113      -75.6748   23.9143  -75.4319 H         1 UNK         0.0747 
    114 H114      -77.5448   24.7269  -73.1612 H         1 UNK         0.0793 
    115 H115      -76.9471   23.1042  -73.4983 H         1 UNK         0.0793 
    116 H116      -75.8399   24.3565  -72.9622 H         1 UNK         0.0793 
    117 H117      -78.4767   24.0089  -75.3203 H         1 UNK         0.3047 
    118 H118      -79.4740   25.3106  -78.2730 H         1 UNK         0.0822 
    119 H119      -78.5389   23.3326  -79.4866 H         1 UNK         0.0807 
    120 H120      -80.2600   23.1456  -79.2052 H         1 UNK         0.0807 
    121 H121      -79.1003   22.2656  -78.2076 H         1 UNK         0.0807 
    122 H122      -80.8220   23.3439  -76.7634 H         1 UNK         0.2946 
    123 H123      -82.6587   24.4104  -75.3805 H         1 UNK         0.1144 
    124 H124      -82.0921   23.0971  -73.2895 H         1 UNK         0.0793 
    125 H125      -80.4185   23.6272  -73.4025 H         1 UNK         0.0793 
    126 H126      -81.1011   22.5665  -74.6300 H         1 UNK         0.0793 
    127 H127      -81.3628   26.4741  -73.8747 H         1 UNK         0.2896 
@<TRIPOS>BOND
     1    1    2 1    
     2    1   67 1    
     3    1   68 1    
     4    1   69 1    
     5    2    3 2    
     6    2    4 am   BACKBONE|DICT|INTERRES
     7    4    5 1    
     8    4   70 1    
     9    5    6 1    
    10    5   65 1    
    11    5   71 1    
    12    6    7 1    
    13    6   72 1    
    14    6   73 1    
    15    7    8 1    
    16    8    9 1    
    17    8   74 1    
    18    8   75 1    
    19    9   10 ar   
    20    9   14 ar   
    21   10   11 ar   
    22   10   76 1    
    23   11   12 ar   
    24   11   48 1    
    25   12   13 ar   
    26   12   77 1    
    27   13   14 ar   
    28   13   15 1    
    29   14   78 1    
    30   15   16 1    
    31   15   79 1    
    32   15   80 1    
    33   16   17 1    
    34   17   18 1    
    35   17   81 1    
    36   17   82 1    
    37   18   19 1    
    38   18   22 1    
    39   18   83 1    
    40   19   20 am   BACKBONE|DICT|INTERRES
    41   19   21 2    
    42   20   84 1    
    43   20   85 1    
    44   22   23 am   BACKBONE|DICT|INTERRES
    45   22   86 1    
    46   23   24 2    
    47   23   25 1    
    48   25   26 1    
    49   25   27 1    
    50   25   87 1    
    51   26   88 1    
    52   26   89 1    
    53   26   90 1    
    54   27   28 am   BACKBONE|DICT|INTERRES
    55   27   91 1    
    56   28   29 2    
    57   28   30 1    
    58   30   31 1    
    59   30   32 1    
    60   30   92 1    
    61   31   93 1    
    62   31   94 1    
    63   31   95 1    
    64   32   33 am   BACKBONE|DICT|INTERRES
    65   32   96 1    
    66   33   34 2    
    67   33   35 1    
    68   35   36 1    
    69   35   37 1    
    70   35   97 1    
    71   36   98 1    
    72   36   99 1    
    73   36  100 1    
    74   37   38 am   BACKBONE|DICT|INTERRES
    75   37  101 1    
    76   38   39 2    
    77   38   40 1    
    78   40   41 1    
    79   40   42 1    
    80   40  102 1    
    81   41  103 1    
    82   41  104 1    
    83   41  105 1    
    84   42   43 am   BACKBONE|DICT|INTERRES
    85   42  106 1    
    86   43   44 2    
    87   43   45 1    
    88   45   46 1    
    89   45   49 1    
    90   45  107 1    
    91   46   47 1    
    92   46  108 1    
    93   46  109 1    
    94   47   48 1    
    95   48  110 1    
    96   48  111 1    
    97   49   50 am   BACKBONE|DICT|INTERRES
    98   49  112 1    
    99   50   51 2    
   100   50   52 1    
   101   52   53 1    
   102   52   54 1    
   103   52  113 1    
   104   53  114 1    
   105   53  115 1    
   106   53  116 1    
   107   54   55 am   BACKBONE|DICT|INTERRES
   108   54  117 1    
   109   55   56 2    
   110   55   57 1    
   111   57   58 1    
   112   57   59 1    
   113   57  118 1    
   114   58  119 1    
   115   58  120 1    
   116   58  121 1    
   117   59   60 am   BACKBONE|DICT|INTERRES
   118   59  122 1    
   119   60   61 2    
   120   60   62 1    
   121   62   63 1    
   122   62   64 1    
   123   62  123 1    
   124   63  124 1    
   125   63  125 1    
   126   63  126 1    
   127   64   65 am   BACKBONE|DICT|INTERRES
   128   64  127 1    
   129   65   66 2    
@<TRIPOS>SUBSTRUCTURE
     1 UNK         1 GROUP             0       ****    0 ROOT    
