@<TRIPOS>MOLECULE
3R135
127   129    1
SMALL
USER_CHARGES


@<TRIPOS>ATOM
      1 CA        -78.2289   31.1913  -75.3260 C.3       0 UNK        -0.1998 
      2 C         -78.7801   29.8852  -74.7750 C.2       0 UNK         0.4909 
      3 O         -78.0469   28.9041  -74.6801 O.2       0 UNK        -0.5240 
      4 N         -80.0665   29.8609  -74.4089 N.am      1 UNK        -0.4739 
      5 CA        -80.7480   28.6718  -73.8887 C.3       1 UNK         0.0864 
      6 C6        -82.0872   29.0143  -73.1825 C.3       11 UNK        -0.0881 
      7 S7        -81.9787   30.3839  -71.9803 S.3       11 UNK        -0.2682 
      8 C8        -81.5693   29.5118  -70.4357 C.3       11 UNK         0.0289 
      9 C9        -80.1160   29.0591  -70.3975 C.ar      11 UNK        -0.0687 
     10 C10       -79.7979   27.7012  -70.2994 C.ar      11 UNK        -0.0823 
     11 C11       -78.4642   27.2837  -70.2316 C.ar      11 UNK        -0.0830 
     12 C12       -77.4474   28.2472  -70.2369 C.ar      11 UNK        -0.1021 
     13 C13       -77.7495   29.6033  -70.3822 C.ar      11 UNK        -0.0753 
     14 C14       -79.0863   30.0036  -70.4476 C.ar      11 UNK        -0.0933 
     15 C15       -76.6359   30.6352  -70.4867 C.3       11 UNK         0.0166 
     16 S16       -75.8733   30.6233  -72.1440 S.3       11 UNK        -0.2615 
     17 C17       -74.5605   29.3674  -71.9538 C.3       11 UNK        -0.0865 
     18 CA        -73.2798   29.7564  -72.7436 C.3       10 UNK         0.0862 
     19 C         -71.9939   29.0982  -72.1540 C.2       10 UNK         0.5551 
     20 N         -71.0832   28.5515  -72.9498 N.am      10 UNK        -0.7319 
     21 O         -71.8037   29.0991  -70.9403 O.2       10 UNK        -0.5018 
     22 N         -73.4613   29.5302  -74.1878 N.am      10 UNK        -0.4509 
     23 C         -72.8728   30.2310  -75.1632 C.2       10 UNK         0.4899 
     24 O         -72.1879   31.2372  -74.9710 O.2       10 UNK        -0.4839 
     25 CA        -73.0515   29.6683  -76.5887 C.3       9 UNK         0.0222 
     26 CB        -72.2742   30.4642  -77.6577 C.3       9 UNK        -0.1966 
     27 N         -72.7206   28.2383  -76.6637 N.am      9 UNK        -0.4218 
     28 C         -71.5641   27.6483  -76.3219 C.2       9 UNK         0.5020 
     29 O         -70.5684   28.2667  -75.9440 O.2       9 UNK        -0.5274 
     30 CA        -71.5039   26.1092  -76.3427 C.3       8 UNK         0.0270 
     31 CB        -71.4256   25.5660  -74.9059 C.3       8 UNK        -0.1976 
     32 N         -72.6373   25.4805  -77.0255 N.am      8 UNK        -0.4313 
     33 C         -72.7706   25.3921  -78.3558 C.2       8 UNK         0.5041 
     34 O         -71.9260   25.7935  -79.1574 O.2       8 UNK        -0.5577 
     35 CA        -74.0811   24.7800  -78.8820 C.3       7 UNK         0.0284 
     36 CB        -74.0242   23.2450  -78.8373 C.3       7 UNK        -0.1958 
     37 N         -75.2621   25.2525  -78.1538 N.am      7 UNK        -0.4454 
     38 C         -75.6770   26.5276  -78.1218 C.2       7 UNK         0.5089 
     39 O         -75.1338   27.4441  -78.7376 O.2       7 UNK        -0.5125 
     40 CA        -76.8697   26.8444  -77.2094 C.3       6 UNK         0.0408 
     41 CB        -78.2010   26.5370  -77.9097 C.3       6 UNK        -0.1791 
     42 N         -76.7896   26.1292  -75.9352 N.am      6 UNK        -0.4762 
     43 C         -75.8942   26.4085  -74.9765 C.2       6 UNK         0.5007 
     44 O         -75.0517   27.3031  -75.0566 O.2       6 UNK        -0.5032 
     45 CA        -75.9005   25.5026  -73.7345 C.3       5 UNK         0.0783 
     46 C46       -76.9472   25.9901  -72.7092 C.3       11 UNK        -0.0857 
     47 S47       -76.6477   25.2772  -71.0592 S.3       11 UNK        -0.2512 
     48 C48       -78.1511   25.7891  -70.1541 C.3       11 UNK         0.0225 
     49 N         -76.0780   24.0926  -74.0940 N.am      5 UNK        -0.4615 
     50 C         -75.1808   23.3797  -74.7891 C.2       4 UNK         0.5053 
     51 O         -74.1050   23.8312  -75.1783 O.2       4 UNK        -0.5105 
     52 CA        -75.5564   21.9348  -75.1540 C.3       4 UNK         0.0263 
     53 CB        -75.1508   20.9741  -74.0254 C.3       4 UNK        -0.1981 
     54 N         -76.9763   21.7551  -75.4637 N.am      4 UNK        -0.4224 
     55 C         -77.6453   22.3900  -76.4367 C.2       3 UNK         0.4895 
     56 O         -77.1308   23.2153  -77.1944 O.2       3 UNK        -0.5091 
     57 CA        -79.1446   22.0662  -76.5901 C.3       3 UNK         0.0250 
     58 CB        -79.6716   21.0026  -75.5981 C.3       3 UNK        -0.1996 
     59 N         -79.9839   23.2686  -76.5273 N.am      3 UNK        -0.4254 
     60 C         -80.0272   24.1725  -75.5375 C.2       2 UNK         0.5004 
     61 O         -79.3046   24.1477  -74.5376 O.2       2 UNK        -0.5226 
     62 CA        -81.0805   25.2756  -75.6885 C.3       2 UNK         0.0269 
     63 CB        -82.4929   24.7289  -75.4106 C.3       2 UNK        -0.1926 
     64 N         -80.8018   26.3687  -74.7574 N.am      2 UNK        -0.4687 
     65 C         -81.0045   27.6628  -75.0269 C.2       1 UNK         0.5165 
     66 O         -81.4305   28.0719  -76.1107 O.2       1 UNK        -0.5079 
     67 H67       -78.9809   31.9799  -75.3347 H         1 UNK         0.0900 
     68 H68       -77.8735   31.0463  -76.3456 H         1 UNK         0.0900 
     69 H69       -77.3900   31.5283  -74.7178 H         1 UNK         0.0900 
     70 H70       -80.6400   30.6856  -74.5095 H         1 UNK         0.2959 
     71 H71       -80.0831   28.2062  -73.1581 H         1 UNK         0.1079 
     72 H72       -82.8398   29.3058  -73.9185 H         1 UNK         0.0837 
     73 H73       -82.4891   28.1310  -72.6824 H         1 UNK         0.0837 
     74 H74       -81.7450   30.1879  -69.5979 H         1 UNK         0.0685 
     75 H75       -82.2519   28.6719  -70.2976 H         1 UNK         0.0685 
     76 H76       -80.5918   26.9670  -70.2737 H         1 UNK         0.1434 
     77 H77       -76.4135   27.9401  -70.1721 H         1 UNK         0.1329 
     78 H78       -79.3304   31.0524  -70.5478 H         1 UNK         0.1335 
     79 H79       -75.8873   30.4651  -69.7120 H         1 UNK         0.0680 
     80 H80       -77.0340   31.6341  -70.3019 H         1 UNK         0.0680 
     81 H81       -74.9365   28.3972  -72.2800 H         1 UNK         0.1032 
     82 H82       -74.3463   29.2610  -70.8895 H         1 UNK         0.1032 
     83 H83       -73.1198   30.8253  -72.5905 H         1 UNK         0.0461 
     84 H84       -71.1678   28.5953  -73.9570 H         1 UNK         0.3453 
     85 H85       -70.2594   28.1457  -72.5362 H         1 UNK         0.3453 
     86 H86       -74.0136   28.7159  -74.4498 H         1 UNK         0.2984 
     87 H87       -74.1144   29.7485  -76.8220 H         1 UNK         0.0554 
     88 H88       -72.4508   30.0621  -78.6553 H         1 UNK         0.0847 
     89 H89       -71.1993   30.4477  -77.4748 H         1 UNK         0.0847 
     90 H90       -72.5860   31.5093  -77.6694 H         1 UNK         0.0847 
     91 H91       -73.4919   27.6335  -76.9147 H         1 UNK         0.3141 
     92 H92       -70.5861   25.8266  -76.8625 H         1 UNK         0.0743 
     93 H93       -72.3045   25.8445  -74.3224 H         1 UNK         0.0784 
     94 H94       -71.3476   24.4787  -74.8957 H         1 UNK         0.0784 
     95 H95       -70.5504   25.9562  -74.3850 H         1 UNK         0.0784 
     96 H96       -73.3418   25.0498  -76.4297 H         1 UNK         0.3213 
     97 H97       -74.1944   25.0859  -79.9243 H         1 UNK         0.0855 
     98 H98       -73.8940   22.8753  -77.8204 H         1 UNK         0.0814 
     99 H99       -73.1885   22.8695  -79.4293 H         1 UNK         0.0814 
    100 H100      -74.9344   22.8010  -79.2411 H         1 UNK         0.0814 
    101 H101      -75.8101   24.5549  -77.6558 H         1 UNK         0.3105 
    102 H102      -76.8455   27.9155  -76.9968 H         1 UNK         0.0547 
    103 H103      -78.2577   27.0405  -78.8757 H         1 UNK         0.0837 
    104 H104      -78.3332   25.4700  -78.0899 H         1 UNK         0.0837 
    105 H105      -79.0421   26.8917  -77.3159 H         1 UNK         0.0837 
    106 H106      -77.4131   25.3451  -75.7999 H         1 UNK         0.3020 
    107 H107      -74.9106   25.6024  -73.2824 H         1 UNK         0.1245 
    108 H108      -77.9599   25.7487  -73.0322 H         1 UNK         0.0781 
    109 H109      -76.9151   27.0773  -72.6212 H         1 UNK         0.0781 
    110 H110      -78.9893   25.2082  -70.5425 H         1 UNK         0.0836 
    111 H111      -78.0412   25.5088  -69.1059 H         1 UNK         0.0836 
    112 H112      -76.9634   23.6714  -73.8470 H         1 UNK         0.3022 
    113 H113      -74.9920   21.6650  -76.0484 H         1 UNK         0.0747 
    114 H114      -75.3218   19.9348  -74.3069 H         1 UNK         0.0793 
    115 H115      -74.0896   21.0737  -73.7920 H         1 UNK         0.0793 
    116 H116      -75.7060   21.1707  -73.1073 H         1 UNK         0.0793 
    117 H117      -77.4878   21.1067  -74.8831 H         1 UNK         0.3047 
    118 H118      -79.2584   21.6623  -77.5972 H         1 UNK         0.0822 
    119 H119      -80.7212   20.7797  -75.7905 H         1 UNK         0.0807 
    120 H120      -79.5950   21.3317  -74.5608 H         1 UNK         0.0807 
    121 H121      -79.1293   20.0611  -75.6956 H         1 UNK         0.0807 
    122 H122      -80.5994   23.3998  -77.3180 H         1 UNK         0.2946 
    123 H123      -81.0334   25.6390  -76.7177 H         1 UNK         0.1144 
    124 H124      -82.7476   23.9180  -76.0941 H         1 UNK         0.0793 
    125 H125      -83.2492   25.5039  -75.5371 H         1 UNK         0.0793 
    126 H126      -82.5802   24.3397  -74.3953 H         1 UNK         0.0793 
    127 H127      -80.3830   26.0834  -73.8817 H         1 UNK         0.2896 
@<TRIPOS>BOND
     1    1    2 1    
     2    1   67 1    
     3    1   68 1    
     4    1   69 1    
     5    2    3 2    
     6    2    4 am   BACKBONE|DICT|INTERRES
     7    4    5 1    
     8    4   70 1    
     9    5    6 1    
    10    5   65 1    
    11    5   71 1    
    12    6    7 1    
    13    6   72 1    
    14    6   73 1    
    15    7    8 1    
    16    8    9 1    
    17    8   74 1    
    18    8   75 1    
    19    9   10 ar   
    20    9   14 ar   
    21   10   11 ar   
    22   10   76 1    
    23   11   12 ar   
    24   11   48 1    
    25   12   13 ar   
    26   12   77 1    
    27   13   14 ar   
    28   13   15 1    
    29   14   78 1    
    30   15   16 1    
    31   15   79 1    
    32   15   80 1    
    33   16   17 1    
    34   17   18 1    
    35   17   81 1    
    36   17   82 1    
    37   18   19 1    
    38   18   22 1    
    39   18   83 1    
    40   19   20 am   BACKBONE|DICT|INTERRES
    41   19   21 2    
    42   20   84 1    
    43   20   85 1    
    44   22   23 am   BACKBONE|DICT|INTERRES
    45   22   86 1    
    46   23   24 2    
    47   23   25 1    
    48   25   26 1    
    49   25   27 1    
    50   25   87 1    
    51   26   88 1    
    52   26   89 1    
    53   26   90 1    
    54   27   28 am   BACKBONE|DICT|INTERRES
    55   27   91 1    
    56   28   29 2    
    57   28   30 1    
    58   30   31 1    
    59   30   32 1    
    60   30   92 1    
    61   31   93 1    
    62   31   94 1    
    63   31   95 1    
    64   32   33 am   BACKBONE|DICT|INTERRES
    65   32   96 1    
    66   33   34 2    
    67   33   35 1    
    68   35   36 1    
    69   35   37 1    
    70   35   97 1    
    71   36   98 1    
    72   36   99 1    
    73   36  100 1    
    74   37   38 am   BACKBONE|DICT|INTERRES
    75   37  101 1    
    76   38   39 2    
    77   38   40 1    
    78   40   41 1    
    79   40   42 1    
    80   40  102 1    
    81   41  103 1    
    82   41  104 1    
    83   41  105 1    
    84   42   43 am   BACKBONE|DICT|INTERRES
    85   42  106 1    
    86   43   44 2    
    87   43   45 1    
    88   45   46 1    
    89   45   49 1    
    90   45  107 1    
    91   46   47 1    
    92   46  108 1    
    93   46  109 1    
    94   47   48 1    
    95   48  110 1    
    96   48  111 1    
    97   49   50 am   BACKBONE|DICT|INTERRES
    98   49  112 1    
    99   50   51 2    
   100   50   52 1    
   101   52   53 1    
   102   52   54 1    
   103   52  113 1    
   104   53  114 1    
   105   53  115 1    
   106   53  116 1    
   107   54   55 am   BACKBONE|DICT|INTERRES
   108   54  117 1    
   109   55   56 2    
   110   55   57 1    
   111   57   58 1    
   112   57   59 1    
   113   57  118 1    
   114   58  119 1    
   115   58  120 1    
   116   58  121 1    
   117   59   60 am   BACKBONE|DICT|INTERRES
   118   59  122 1    
   119   60   61 2    
   120   60   62 1    
   121   62   63 1    
   122   62   64 1    
   123   62  123 1    
   124   63  124 1    
   125   63  125 1    
   126   63  126 1    
   127   64   65 am   BACKBONE|DICT|INTERRES
   128   64  127 1    
   129   65   66 2    
@<TRIPOS>SUBSTRUCTURE
     1 UNK         1 GROUP             0       ****    0 ROOT    
