@<TRIPOS>MOLECULE
3R135
127   129    1
SMALL
USER_CHARGES


@<TRIPOS>ATOM
      1 CA        -84.8680   29.5289  -75.1240 C.3       0 UNK        -0.1998 
      2 C         -83.5392   28.8483  -75.4144 C.2       0 UNK         0.4909 
      3 O         -83.1027   28.8173  -76.5662 O.2       0 UNK        -0.5240 
      4 N         -82.8930   28.2900  -74.3831 N.am      1 UNK        -0.4739 
      5 CA        -81.5931   27.6068  -74.4533 C.3       1 UNK         0.0864 
      6 C6        -80.8441   27.6611  -73.0948 C.3       11 UNK        -0.0881 
      7 S7        -80.5222   29.3827  -72.5856 S.3       11 UNK        -0.2682 
      8 C8        -79.9098   29.1646  -70.8850 C.3       11 UNK         0.0289 
      9 C9        -78.4134   28.8823  -70.8267 C.ar      11 UNK        -0.0687 
     10 C10       -77.9309   27.7384  -70.1831 C.ar      11 UNK        -0.0823 
     11 C11       -76.5544   27.5251  -70.0470 C.ar      11 UNK        -0.0830 
     12 C12       -75.6584   28.4512  -70.5928 C.ar      11 UNK        -0.1021 
     13 C13       -76.1269   29.5948  -71.2483 C.ar      11 UNK        -0.0753 
     14 C14       -77.5050   29.8075  -71.3500 C.ar      11 UNK        -0.0933 
     15 C15       -75.1483   30.6288  -71.7916 C.3       11 UNK         0.0166 
     16 S16       -75.3938   30.9451  -73.5681 S.3       11 UNK        -0.2615 
     17 C17       -74.0178   32.0878  -73.9289 C.3       11 UNK        -0.0865 
     18 CA        -72.8997   31.4239  -74.7760 C.3       10 UNK         0.0862 
     19 C         -71.8619   32.4828  -75.2529 C.2       10 UNK         0.5551 
     20 N         -70.5943   32.3973  -74.8676 N.am      10 UNK        -0.7319 
     21 O         -72.2162   33.3991  -75.9908 O.2       10 UNK        -0.5018 
     22 N         -72.3191   30.2576  -74.0880 N.am      10 UNK        -0.4509 
     23 C         -71.6644   29.2568  -74.6889 C.2       10 UNK         0.4899 
     24 O         -71.4544   29.2134  -75.9020 O.2       10 UNK        -0.4839 
     25 CA        -71.1338   28.1248  -73.7891 C.3       9 UNK         0.0222 
     26 CB        -71.6299   28.1933  -72.3280 C.3       9 UNK        -0.1966 
     27 N         -71.5209   26.8364  -74.3597 N.am      9 UNK        -0.4218 
     28 C         -70.7270   26.0330  -75.0793 C.2       9 UNK         0.5020 
     29 O         -69.5332   26.2508  -75.2948 O.2       9 UNK        -0.5274 
     30 CA        -71.3714   24.7588  -75.6522 C.3       8 UNK         0.0270 
     31 CB        -71.5295   23.6891  -74.5587 C.3       8 UNK        -0.1976 
     32 N         -72.6694   25.0088  -76.2816 N.am      8 UNK        -0.4313 
     33 C         -72.8538   25.6942  -77.4195 C.2       8 UNK         0.5041 
     34 O         -71.9369   26.1543  -78.1007 O.2       8 UNK        -0.5577 
     35 CA        -74.3060   25.8981  -77.8810 C.3       7 UNK         0.0284 
     36 CB        -74.8188   24.6741  -78.6575 C.3       7 UNK        -0.1958 
     37 N         -75.1880   26.1762  -76.7466 N.am      7 UNK        -0.4454 
     38 C         -75.3732   27.3968  -76.2242 C.2       7 UNK         0.5089 
     39 O         -74.9298   28.4285  -76.7278 O.2       7 UNK        -0.5125 
     40 CA        -76.1812   27.4924  -74.9177 C.3       6 UNK         0.0408 
     41 CB        -77.5968   28.0293  -75.1767 C.3       6 UNK        -0.1791 
     42 N         -76.2558   26.2286  -74.1807 N.am      6 UNK        -0.4762 
     43 C         -75.2287   25.7180  -73.4859 C.2       6 UNK         0.5007 
     44 O         -74.1170   26.2427  -73.4402 O.2       6 UNK        -0.5032 
     45 CA        -75.4465   24.3564  -72.7917 C.3       5 UNK         0.0783 
     46 C46       -76.0916   24.5155  -71.3948 C.3       11 UNK        -0.0857 
     47 S47       -74.9404   25.2339  -70.1779 S.3       11 UNK        -0.2512 
     48 C48       -76.0423   26.3376  -69.2378 C.3       11 UNK         0.0225 
     49 N         -76.2055   23.4145  -73.6179 N.am      5 UNK        -0.4615 
     50 C         -75.8643   23.0103  -74.8476 C.2       4 UNK         0.5053 
     51 O         -74.8417   23.3786  -75.4257 O.2       4 UNK        -0.5105 
     52 CA        -76.8510   22.0895  -75.5885 C.3       4 UNK         0.0263 
     53 CB        -77.9246   21.4536  -74.6757 C.3       4 UNK        -0.1981 
     54 N         -77.4934   22.7766  -76.7157 N.am      4 UNK        -0.4224 
     55 C         -78.1656   23.9382  -76.6778 C.2       3 UNK         0.4895 
     56 O         -78.2795   24.6356  -75.6674 O.2       3 UNK        -0.5091 
     57 CA        -78.8128   24.4334  -77.9857 C.3       3 UNK         0.0250 
     58 CB        -78.7200   23.4442  -79.1717 C.3       3 UNK        -0.1996 
     59 N         -80.1997   24.8507  -77.7502 N.am      3 UNK        -0.4254 
     60 C         -81.2134   24.0851  -77.3136 C.2       2 UNK         0.5004 
     61 O         -81.1435   22.8649  -77.1516 O.2       2 UNK        -0.5226 
     62 CA        -82.5229   24.8338  -76.9985 C.3       2 UNK         0.0269 
     63 CB        -83.5879   23.9435  -76.3219 C.3       2 UNK        -0.1926 
     64 N         -82.2887   26.0580  -76.2197 N.am      2 UNK        -0.4687 
     65 C         -81.7569   26.1672  -74.9914 C.2       1 UNK         0.5165 
     66 O         -81.4337   25.2059  -74.2922 O.2       1 UNK        -0.5079 
     67 H67       -85.1268   29.4830  -74.0664 H         1 UNK         0.0900 
     68 H68       -85.6662   29.0500  -75.6903 H         1 UNK         0.0900 
     69 H69       -84.8234   30.5775  -75.4168 H         1 UNK         0.0900 
     70 H70       -83.3053   28.3342  -73.4620 H         1 UNK         0.2959 
     71 H71       -80.9690   28.1308  -75.1813 H         1 UNK         0.1079 
     72 H72       -79.8894   27.1349  -73.1529 H         1 UNK         0.0837 
     73 H73       -81.4243   27.1603  -72.3175 H         1 UNK         0.0837 
     74 H74       -80.1068   30.0821  -70.3289 H         1 UNK         0.0685 
     75 H75       -80.4818   28.3801  -70.3873 H         1 UNK         0.0685 
     76 H76       -78.6289   27.0345  -69.7507 H         1 UNK         0.1434 
     77 H77       -74.5948   28.2891  -70.4826 H         1 UNK         0.1329 
     78 H78       -77.8728   30.7025  -71.8332 H         1 UNK         0.1335 
     79 H79       -75.2756   31.5613  -71.2400 H         1 UNK         0.0680 
     80 H80       -74.1202   30.3052  -71.6259 H         1 UNK         0.0680 
     81 H81       -73.6109   32.4924  -73.0004 H         1 UNK         0.1032 
     82 H82       -74.4433   32.9396  -74.4632 H         1 UNK         0.1032 
     83 H83       -73.3708   31.0509  -75.6880 H         1 UNK         0.0461 
     84 H84       -70.2931   31.6463  -74.2682 H         1 UNK         0.3453 
     85 H85       -69.9324   33.0874  -75.1862 H         1 UNK         0.3453 
     86 H86       -72.4408   30.2250  -73.0882 H         1 UNK         0.2984 
     87 H87       -70.0461   28.2161  -73.7726 H         1 UNK         0.0554 
     88 H88       -71.2618   27.3441  -71.7520 H         1 UNK         0.0847 
     89 H89       -72.7187   28.1804  -72.2635 H         1 UNK         0.0847 
     90 H90       -71.2716   29.0922  -71.8250 H         1 UNK         0.0847 
     91 H91       -72.4935   26.5687  -74.2157 H         1 UNK         0.3141 
     92 H92       -70.7013   24.3625  -76.4181 H         1 UNK         0.0743 
     93 H93       -72.2021   24.0177  -73.7659 H         1 UNK         0.0784 
     94 H94       -71.9250   22.7592  -74.9680 H         1 UNK         0.0784 
     95 H95       -70.5685   23.4584  -74.0971 H         1 UNK         0.0784 
     96 H96       -73.4789   24.5790  -75.8398 H         1 UNK         0.3213 
     97 H97       -74.3188   26.7508  -78.5639 H         1 UNK         0.0855 
     98 H98       -74.1704   24.4560  -79.5071 H         1 UNK         0.0814 
     99 H99       -75.8179   24.8511  -79.0539 H         1 UNK         0.0814 
    100 H100      -74.8532   23.7775  -78.0388 H         1 UNK         0.0814 
    101 H101      -75.5571   25.3810  -76.2424 H         1 UNK         0.3105 
    102 H102      -75.6653   28.2126  -74.2820 H         1 UNK         0.0547 
    103 H103      -77.5627   28.9612  -75.7425 H         1 UNK         0.0837 
    104 H104      -78.2065   27.3238  -75.7411 H         1 UNK         0.0837 
    105 H105      -78.1037   28.2486  -74.2379 H         1 UNK         0.0837 
    106 H106      -77.1110   25.6902  -74.2774 H         1 UNK         0.3020 
    107 H107      -74.4581   23.9112  -72.6583 H         1 UNK         0.1245 
    108 H108      -76.3909   23.5406  -71.0065 H         1 UNK         0.0781 
    109 H109      -77.0067   25.1077  -71.4553 H         1 UNK         0.0781 
    110 H110      -75.4960   26.7176  -68.3735 H         1 UNK         0.0836 
    111 H111      -76.8697   25.7498  -68.8371 H         1 UNK         0.0836 
    112 H112      -77.0854   23.0932  -73.2423 H         1 UNK         0.3022 
    113 H113      -76.2523   21.2812  -76.0111 H         1 UNK         0.0747 
    114 H114      -78.5240   20.7311  -75.2299 H         1 UNK         0.0793 
    115 H115      -77.4703   20.9156  -73.8424 H         1 UNK         0.0793 
    116 H116      -78.6120   22.1944  -74.2648 H         1 UNK         0.0793 
    117 H117      -77.4378   22.2982  -77.6035 H         1 UNK         0.3047 
    118 H118      -78.2659   25.3351  -78.2654 H         1 UNK         0.0822 
    119 H119      -79.1965   23.8582  -80.0605 H         1 UNK         0.0807 
    120 H120      -79.2049   22.4915  -78.9556 H         1 UNK         0.0807 
    121 H121      -77.6836   23.2368  -79.4399 H         1 UNK         0.0807 
    122 H122      -80.3680   25.8445  -77.8155 H         1 UNK         0.2946 
    123 H123      -82.9278   25.1503  -77.9614 H         1 UNK         0.1144 
    124 H124      -83.8512   23.0986  -76.9595 H         1 UNK         0.0793 
    125 H125      -84.5048   24.4998  -76.1276 H         1 UNK         0.0793 
    126 H126      -83.2354   23.5353  -75.3742 H         1 UNK         0.0793 
    127 H127      -82.5583   26.9295  -76.6693 H         1 UNK         0.2896 
@<TRIPOS>BOND
     1    1    2 1    
     2    1   67 1    
     3    1   68 1    
     4    1   69 1    
     5    2    3 2    
     6    2    4 am   BACKBONE|DICT|INTERRES
     7    4    5 1    
     8    4   70 1    
     9    5    6 1    
    10    5   65 1    
    11    5   71 1    
    12    6    7 1    
    13    6   72 1    
    14    6   73 1    
    15    7    8 1    
    16    8    9 1    
    17    8   74 1    
    18    8   75 1    
    19    9   10 ar   
    20    9   14 ar   
    21   10   11 ar   
    22   10   76 1    
    23   11   12 ar   
    24   11   48 1    
    25   12   13 ar   
    26   12   77 1    
    27   13   14 ar   
    28   13   15 1    
    29   14   78 1    
    30   15   16 1    
    31   15   79 1    
    32   15   80 1    
    33   16   17 1    
    34   17   18 1    
    35   17   81 1    
    36   17   82 1    
    37   18   19 1    
    38   18   22 1    
    39   18   83 1    
    40   19   20 am   BACKBONE|DICT|INTERRES
    41   19   21 2    
    42   20   84 1    
    43   20   85 1    
    44   22   23 am   BACKBONE|DICT|INTERRES
    45   22   86 1    
    46   23   24 2    
    47   23   25 1    
    48   25   26 1    
    49   25   27 1    
    50   25   87 1    
    51   26   88 1    
    52   26   89 1    
    53   26   90 1    
    54   27   28 am   BACKBONE|DICT|INTERRES
    55   27   91 1    
    56   28   29 2    
    57   28   30 1    
    58   30   31 1    
    59   30   32 1    
    60   30   92 1    
    61   31   93 1    
    62   31   94 1    
    63   31   95 1    
    64   32   33 am   BACKBONE|DICT|INTERRES
    65   32   96 1    
    66   33   34 2    
    67   33   35 1    
    68   35   36 1    
    69   35   37 1    
    70   35   97 1    
    71   36   98 1    
    72   36   99 1    
    73   36  100 1    
    74   37   38 am   BACKBONE|DICT|INTERRES
    75   37  101 1    
    76   38   39 2    
    77   38   40 1    
    78   40   41 1    
    79   40   42 1    
    80   40  102 1    
    81   41  103 1    
    82   41  104 1    
    83   41  105 1    
    84   42   43 am   BACKBONE|DICT|INTERRES
    85   42  106 1    
    86   43   44 2    
    87   43   45 1    
    88   45   46 1    
    89   45   49 1    
    90   45  107 1    
    91   46   47 1    
    92   46  108 1    
    93   46  109 1    
    94   47   48 1    
    95   48  110 1    
    96   48  111 1    
    97   49   50 am   BACKBONE|DICT|INTERRES
    98   49  112 1    
    99   50   51 2    
   100   50   52 1    
   101   52   53 1    
   102   52   54 1    
   103   52  113 1    
   104   53  114 1    
   105   53  115 1    
   106   53  116 1    
   107   54   55 am   BACKBONE|DICT|INTERRES
   108   54  117 1    
   109   55   56 2    
   110   55   57 1    
   111   57   58 1    
   112   57   59 1    
   113   57  118 1    
   114   58  119 1    
   115   58  120 1    
   116   58  121 1    
   117   59   60 am   BACKBONE|DICT|INTERRES
   118   59  122 1    
   119   60   61 2    
   120   60   62 1    
   121   62   63 1    
   122   62   64 1    
   123   62  123 1    
   124   63  124 1    
   125   63  125 1    
   126   63  126 1    
   127   64   65 am   BACKBONE|DICT|INTERRES
   128   64  127 1    
   129   65   66 2    
@<TRIPOS>SUBSTRUCTURE
     1 UNK         1 GROUP             0       ****    0 ROOT    
