@<TRIPOS>MOLECULE
3R135
127   129    1
SMALL
USER_CHARGES


@<TRIPOS>ATOM
      1 CA        -78.1519   22.1070  -71.7040 C.3       0 UNK        -0.1998 
      2 C         -79.3799   22.9946  -71.8289 C.2       0 UNK         0.4909 
      3 O         -80.2992   22.6646  -72.5785 O.2       0 UNK        -0.5240 
      4 N         -79.3981   24.1262  -71.1116 N.am      1 UNK        -0.4739 
      5 CA        -80.4585   25.1395  -71.1423 C.3       1 UNK         0.0864 
      6 C6        -80.1852   26.2468  -70.0979 C.3       11 UNK        -0.0881 
      7 S7        -81.6039   27.3742  -69.8833 S.3       11 UNK        -0.2682 
      8 C8        -80.7729   28.9824  -69.6716 C.3       11 UNK         0.0289 
      9 C9        -79.9339   29.3971  -70.8759 C.ar      11 UNK        -0.0687 
     10 C10       -80.5230   29.5476  -72.1366 C.ar      11 UNK        -0.0823 
     11 C11       -79.7643   29.9753  -73.2318 C.ar      11 UNK        -0.0830 
     12 C12       -78.4084   30.2631  -73.0495 C.ar      11 UNK        -0.1021 
     13 C13       -77.8039   30.1037  -71.8018 C.ar      11 UNK        -0.0753 
     14 C14       -78.5698   29.6669  -70.7178 C.ar      11 UNK        -0.0933 
     15 C15       -76.3302   30.4377  -71.6322 C.3       11 UNK         0.0166 
     16 S16       -75.2746   29.0368  -72.0944 S.3       11 UNK        -0.2615 
     17 C17       -73.6244   29.8139  -72.1041 C.3       11 UNK        -0.0865 
     18 CA        -72.8056   29.4821  -73.3885 C.3       10 UNK         0.0862 
     19 C         -71.5507   30.3981  -73.5295 C.2       10 UNK         0.5551 
     20 N         -70.3780   29.8930  -73.8944 N.am      10 UNK        -0.7319 
     21 O         -71.6495   31.6097  -73.3398 O.2       10 UNK        -0.5018 
     22 N         -72.5420   28.0413  -73.5750 N.am      10 UNK        -0.4509 
     23 C         -71.8724   27.2396  -72.7358 C.2       10 UNK         0.4899 
     24 O         -71.4586   27.5825  -71.6291 O.2       10 UNK        -0.4839 
     25 CA        -71.5587   25.8175  -73.2369 C.3       9 UNK         0.0222 
     26 CB        -72.7514   24.8797  -73.0007 C.3       9 UNK        -0.1966 
     27 N         -71.1583   25.7554  -74.6474 N.am      9 UNK        -0.4218 
     28 C         -70.1146   26.4009  -75.1900 C.2       9 UNK         0.5020 
     29 O         -69.3732   27.1538  -74.5571 O.2       9 UNK        -0.5274 
     30 CA        -69.8354   26.1749  -76.6884 C.3       8 UNK         0.0270 
     31 CB        -68.6598   25.1995  -76.8718 C.3       8 UNK        -0.1976 
     32 N         -70.9862   25.6896  -77.4578 N.am      8 UNK        -0.4313 
     33 C         -72.0919   26.4024  -77.7036 C.2       8 UNK         0.5041 
     34 O         -72.2836   27.5424  -77.2700 O.2       8 UNK        -0.5577 
     35 CA        -73.1583   25.7248  -78.5740 C.3       7 UNK         0.0284 
     36 CB        -73.8275   24.5475  -77.8393 C.3       7 UNK        -0.1958 
     37 N         -74.1579   26.7286  -78.9103 N.am      7 UNK        -0.4454 
     38 C         -74.9652   26.7381  -79.9755 C.2       7 UNK         0.5089 
     39 O         -74.9708   25.8583  -80.8378 O.2       7 UNK        -0.5125 
     40 CA        -75.9162   27.9499  -80.0902 C.3       6 UNK         0.0408 
     41 CB        -77.1180   27.6910  -81.0241 C.3       6 UNK        -0.1791 
     42 N         -76.3527   28.4527  -78.7781 N.am      6 UNK        -0.4762 
     43 C         -77.0668   27.7801  -77.8610 C.2       6 UNK         0.5007 
     44 O         -77.5749   26.6740  -78.0579 O.2       6 UNK        -0.5032 
     45 CA        -77.2252   28.4696  -76.4896 C.3       5 UNK         0.0783 
     46 C46       -78.4191   29.4711  -76.4843 C.3       11 UNK        -0.0857 
     47 S47       -79.9934   28.8550  -75.7840 S.3       11 UNK        -0.2512 
     48 C48       -80.4222   30.1698  -74.5935 C.3       11 UNK         0.0225 
     49 N         -77.2739   27.4600  -75.4264 N.am      5 UNK        -0.4615 
     50 C         -76.2242   26.7153  -75.0493 C.2       4 UNK         0.5053 
     51 O         -75.0607   26.9678  -75.3637 O.2       4 UNK        -0.5105 
     52 CA        -76.5169   25.4469  -74.2325 C.3       4 UNK         0.0263 
     53 CB        -76.5139   25.7400  -72.7245 C.3       4 UNK        -0.1981 
     54 N         -77.7834   24.8244  -74.6304 N.am      4 UNK        -0.4224 
     55 C         -77.9033   23.9727  -75.6633 C.2       3 UNK         0.4895 
     56 O         -76.9437   23.5886  -76.3330 O.2       3 UNK        -0.5091 
     57 CA        -79.2990   23.4173  -76.0106 C.3       3 UNK         0.0250 
     58 CB        -79.3446   21.8933  -75.8024 C.3       3 UNK        -0.1996 
     59 N         -80.3706   24.0344  -75.2277 N.am      3 UNK        -0.4254 
     60 C         -81.0945   25.0901  -75.6279 C.2       2 UNK         0.5004 
     61 O         -81.0222   25.5753  -76.7561 O.2       2 UNK        -0.5226 
     62 CA        -82.0619   25.7244  -74.6058 C.3       2 UNK         0.0269 
     63 CB        -83.5140   25.3304  -74.9207 C.3       2 UNK        -0.1926 
     64 N         -81.7708   25.3943  -73.2058 N.am      2 UNK        -0.4687 
     65 C         -80.6316   25.7006  -72.5703 C.2       1 UNK         0.5165 
     66 O         -79.7088   26.3206  -73.0985 O.2       1 UNK        -0.5079 
     67 H67       -77.4772   22.4524  -70.9212 H         1 UNK         0.0900 
     68 H68       -78.4495   21.0860  -71.4684 H         1 UNK         0.0900 
     69 H69       -77.6034   22.0944  -72.6454 H         1 UNK         0.0900 
     70 H70       -78.6068   24.3463  -70.5247 H         1 UNK         0.2959 
     71 H71       -81.3829   24.6332  -70.8565 H         1 UNK         0.1079 
     72 H72       -79.2867   26.8054  -70.3652 H         1 UNK         0.0837 
     73 H73       -79.9794   25.7986  -69.1247 H         1 UNK         0.0837 
     74 H74       -80.1625   28.9413  -68.7682 H         1 UNK         0.0685 
     75 H75       -81.5306   29.7462  -69.4929 H         1 UNK         0.0685 
     76 H76       -81.5763   29.3361  -72.2592 H         1 UNK         0.1434 
     77 H77       -77.8082   30.6181  -73.8719 H         1 UNK         0.1329 
     78 H78       -78.1050   29.5536  -69.7480 H         1 UNK         0.1335 
     79 H79       -76.0811   31.3002  -72.2482 H         1 UNK         0.0680 
     80 H80       -76.1187   30.7224  -70.6034 H         1 UNK         0.0680 
     81 H81       -73.0883   29.5112  -71.2047 H         1 UNK         0.1032 
     82 H82       -73.7535   30.8941  -72.0102 H         1 UNK         0.1032 
     83 H83       -73.4289   29.7549  -74.2404 H         1 UNK         0.0461 
     84 H84       -69.5929   30.5149  -73.9929 H         1 UNK         0.3453 
     85 H85       -70.2521   28.8983  -74.0520 H         1 UNK         0.3453 
     86 H86       -72.8497   27.6600  -74.4602 H         1 UNK         0.2984 
     87 H87       -70.7176   25.4450  -72.6482 H         1 UNK         0.0554 
     88 H88       -73.0903   24.9271  -71.9645 H         1 UNK         0.0847 
     89 H89       -72.4910   23.8415  -73.2091 H         1 UNK         0.0847 
     90 H90       -73.5948   25.1489  -73.6343 H         1 UNK         0.0847 
     91 H91       -71.7130   25.1692  -75.2531 H         1 UNK         0.3141 
     92 H92       -69.5424   27.1410  -77.1061 H         1 UNK         0.0743 
     93 H93       -68.8963   24.2047  -76.4916 H         1 UNK         0.0784 
     94 H94       -68.3823   25.1025  -77.9218 H         1 UNK         0.0784 
     95 H95       -67.7750   25.5497  -76.3381 H         1 UNK         0.0784 
     96 H96       -70.9064   24.7635  -77.8531 H         1 UNK         0.3213 
     97 H97       -72.6809   25.3698  -79.4898 H         1 UNK         0.0855 
     98 H98       -74.2861   24.8656  -76.9027 H         1 UNK         0.0814 
     99 H99       -73.1087   23.7628  -77.6029 H         1 UNK         0.0814 
    100 H100      -74.6096   24.0923  -78.4476 H         1 UNK         0.0814 
    101 H101      -74.1630   27.5132  -78.2695 H         1 UNK         0.3105 
    102 H102      -75.3257   28.7506  -80.5374 H         1 UNK         0.0547 
    103 H103      -77.7729   28.5601  -81.0802 H         1 UNK         0.0837 
    104 H104      -77.7151   26.8405  -80.6947 H         1 UNK         0.0837 
    105 H105      -76.7826   27.4740  -82.0387 H         1 UNK         0.0837 
    106 H106      -75.9961   29.3665  -78.5322 H         1 UNK         0.3020 
    107 H107      -76.3152   29.0510  -76.3227 H         1 UNK         0.1245 
    108 H108      -78.6365   29.8347  -77.4909 H         1 UNK         0.0781 
    109 H109      -78.1192   30.3714  -75.9535 H         1 UNK         0.0781 
    110 H110      -81.5075   30.1830  -74.4831 H         1 UNK         0.0836 
    111 H111      -80.1561   31.1463  -75.0004 H         1 UNK         0.0836 
    112 H112      -78.1996   27.2006  -75.1143 H         1 UNK         0.3022 
    113 H113      -75.7111   24.7372  -74.4271 H         1 UNK         0.0747 
    114 H114      -76.7368   24.8469  -72.1439 H         1 UNK         0.0793 
    115 H115      -75.5340   26.0938  -72.4043 H         1 UNK         0.0793 
    116 H116      -77.2341   26.5127  -72.4557 H         1 UNK         0.0793 
    117 H117      -78.6137   25.1545  -74.1463 H         1 UNK         0.3047 
    118 H118      -79.4612   23.6121  -77.0728 H         1 UNK         0.0822 
    119 H119      -80.3211   21.4860  -76.0651 H         1 UNK         0.0807 
    120 H120      -79.1333   21.6174  -74.7694 H         1 UNK         0.0807 
    121 H121      -78.6067   21.3911  -76.4293 H         1 UNK         0.0807 
    122 H122      -80.5083   23.6699  -74.2889 H         1 UNK         0.2946 
    123 H123      -81.9679   26.8074  -74.7124 H         1 UNK         0.1144 
    124 H124      -84.2170   25.8466  -74.2669 H         1 UNK         0.0793 
    125 H125      -83.6735   24.2572  -74.8091 H         1 UNK         0.0793 
    126 H126      -83.7761   25.5940  -75.9463 H         1 UNK         0.0793 
    127 H127      -82.4649   24.8435  -72.7210 H         1 UNK         0.2896 
@<TRIPOS>BOND
     1    1    2 1    
     2    1   67 1    
     3    1   68 1    
     4    1   69 1    
     5    2    3 2    
     6    2    4 am   BACKBONE|DICT|INTERRES
     7    4    5 1    
     8    4   70 1    
     9    5    6 1    
    10    5   65 1    
    11    5   71 1    
    12    6    7 1    
    13    6   72 1    
    14    6   73 1    
    15    7    8 1    
    16    8    9 1    
    17    8   74 1    
    18    8   75 1    
    19    9   10 ar   
    20    9   14 ar   
    21   10   11 ar   
    22   10   76 1    
    23   11   12 ar   
    24   11   48 1    
    25   12   13 ar   
    26   12   77 1    
    27   13   14 ar   
    28   13   15 1    
    29   14   78 1    
    30   15   16 1    
    31   15   79 1    
    32   15   80 1    
    33   16   17 1    
    34   17   18 1    
    35   17   81 1    
    36   17   82 1    
    37   18   19 1    
    38   18   22 1    
    39   18   83 1    
    40   19   20 am   BACKBONE|DICT|INTERRES
    41   19   21 2    
    42   20   84 1    
    43   20   85 1    
    44   22   23 am   BACKBONE|DICT|INTERRES
    45   22   86 1    
    46   23   24 2    
    47   23   25 1    
    48   25   26 1    
    49   25   27 1    
    50   25   87 1    
    51   26   88 1    
    52   26   89 1    
    53   26   90 1    
    54   27   28 am   BACKBONE|DICT|INTERRES
    55   27   91 1    
    56   28   29 2    
    57   28   30 1    
    58   30   31 1    
    59   30   32 1    
    60   30   92 1    
    61   31   93 1    
    62   31   94 1    
    63   31   95 1    
    64   32   33 am   BACKBONE|DICT|INTERRES
    65   32   96 1    
    66   33   34 2    
    67   33   35 1    
    68   35   36 1    
    69   35   37 1    
    70   35   97 1    
    71   36   98 1    
    72   36   99 1    
    73   36  100 1    
    74   37   38 am   BACKBONE|DICT|INTERRES
    75   37  101 1    
    76   38   39 2    
    77   38   40 1    
    78   40   41 1    
    79   40   42 1    
    80   40  102 1    
    81   41  103 1    
    82   41  104 1    
    83   41  105 1    
    84   42   43 am   BACKBONE|DICT|INTERRES
    85   42  106 1    
    86   43   44 2    
    87   43   45 1    
    88   45   46 1    
    89   45   49 1    
    90   45  107 1    
    91   46   47 1    
    92   46  108 1    
    93   46  109 1    
    94   47   48 1    
    95   48  110 1    
    96   48  111 1    
    97   49   50 am   BACKBONE|DICT|INTERRES
    98   49  112 1    
    99   50   51 2    
   100   50   52 1    
   101   52   53 1    
   102   52   54 1    
   103   52  113 1    
   104   53  114 1    
   105   53  115 1    
   106   53  116 1    
   107   54   55 am   BACKBONE|DICT|INTERRES
   108   54  117 1    
   109   55   56 2    
   110   55   57 1    
   111   57   58 1    
   112   57   59 1    
   113   57  118 1    
   114   58  119 1    
   115   58  120 1    
   116   58  121 1    
   117   59   60 am   BACKBONE|DICT|INTERRES
   118   59  122 1    
   119   60   61 2    
   120   60   62 1    
   121   62   63 1    
   122   62   64 1    
   123   62  123 1    
   124   63  124 1    
   125   63  125 1    
   126   63  126 1    
   127   64   65 am   BACKBONE|DICT|INTERRES
   128   64  127 1    
   129   65   66 2    
@<TRIPOS>SUBSTRUCTURE
     1 UNK         1 GROUP             0       ****    0 ROOT    
