@<TRIPOS>MOLECULE
3R135
127   129    1
SMALL
USER_CHARGES


@<TRIPOS>ATOM
      1 CA        -81.9708   27.3868  -72.7760 C.3       0 UNK        -0.1998 
      2 C         -81.0808   26.3816  -73.4876 C.2       0 UNK         0.4909 
      3 O         -81.0834   26.3175  -74.7166 O.2       0 UNK        -0.5240 
      4 N         -80.3088   25.5865  -72.7363 N.am      1 UNK        -0.4739 
      5 CA        -79.3773   24.5854  -73.2770 C.3       1 UNK         0.0864 
      6 C6        -78.3416   24.1255  -72.2234 C.3       11 UNK        -0.0881 
      7 S7        -76.9468   25.2984  -72.1464 S.3       11 UNK        -0.2682 
      8 C8        -77.4965   26.5295  -70.9241 C.3       11 UNK         0.0289 
      9 C9        -77.1843   27.9374  -71.4110 C.ar      11 UNK        -0.0687 
     10 C10       -78.0889   28.6090  -72.2394 C.ar      11 UNK        -0.0823 
     11 C11       -77.7944   29.8829  -72.7348 C.ar      11 UNK        -0.0830 
     12 C12       -76.6068   30.5064  -72.3437 C.ar      11 UNK        -0.1021 
     13 C13       -75.6964   29.8552  -71.5057 C.ar      11 UNK        -0.0753 
     14 C14       -75.9892   28.5667  -71.0466 C.ar      11 UNK        -0.0933 
     15 C15       -74.4166   30.5588  -71.0682 C.3       11 UNK         0.0166 
     16 S16       -72.9745   30.1279  -72.0982 S.3       11 UNK        -0.2615 
     17 C17       -73.3397   30.9881  -73.6672 C.3       11 UNK        -0.0865 
     18 CA        -73.0638   30.0977  -74.9154 C.3       10 UNK         0.0862 
     19 C         -73.7338   30.6461  -76.2141 C.2       10 UNK         0.5551 
     20 N         -73.1618   30.4273  -77.3926 N.am      10 UNK        -0.7319 
     21 O         -74.7958   31.2619  -76.1626 O.2       10 UNK        -0.5018 
     22 N         -71.6382   29.7464  -75.0710 N.am      10 UNK        -0.4509 
     23 C         -70.6255   30.6069  -75.2649 C.2       10 UNK         0.4899 
     24 O         -70.7722   31.8286  -75.3253 O.2       10 UNK        -0.4839 
     25 CA        -69.2122   30.0182  -75.4705 C.3       9 UNK         0.0222 
     26 CB        -68.0988   30.9384  -74.9235 C.3       9 UNK        -0.1966 
     27 N         -69.0574   28.6427  -74.9814 N.am      9 UNK        -0.4218 
     28 C         -69.1137   28.2123  -73.7129 C.2       9 UNK         0.5020 
     29 O         -69.2332   28.9408  -72.7261 O.2       9 UNK        -0.5274 
     30 CA        -69.0704   26.6848  -73.5282 C.3       8 UNK         0.0270 
     31 CB        -68.0625   26.2794  -72.4382 C.3       8 UNK        -0.1976 
     32 N         -70.3891   26.1370  -73.1969 N.am      8 UNK        -0.4313 
     33 C         -71.4950   26.2578  -73.9439 C.2       8 UNK         0.5041 
     34 O         -71.5352   26.8537  -75.0253 O.2       8 UNK        -0.5577 
     35 CA        -72.7661   25.6104  -73.3812 C.3       7 UNK         0.0284 
     36 CB        -73.3542   26.4613  -72.2451 C.3       7 UNK        -0.1958 
     37 N         -73.7567   25.5010  -74.4481 N.am      7 UNK        -0.4454 
     38 C         -74.2971   24.3735  -74.9124 C.2       7 UNK         0.5089 
     39 O         -74.1059   23.2634  -74.4119 O.2       7 UNK        -0.5125 
     40 CA        -75.1995   24.5224  -76.1543 C.3       6 UNK         0.0408 
     41 CB        -75.6971   23.1670  -76.6905 C.3       6 UNK        -0.1791 
     42 N         -76.3626   25.3750  -75.9059 N.am      6 UNK        -0.4762 
     43 C         -76.3730   26.7152  -75.8303 C.2       6 UNK         0.5007 
     44 O         -75.3598   27.4085  -75.9353 O.2       6 UNK        -0.5032 
     45 CA        -77.7594   27.3646  -75.6062 C.3       5 UNK         0.0783 
     46 C46       -77.7804   28.9063  -75.7849 C.3       11 UNK        -0.0857 
     47 S47       -79.3248   29.6009  -75.0951 S.3       11 UNK        -0.2512 
     48 C48       -78.7480   30.6083  -73.6822 C.3       11 UNK         0.0225 
     49 N         -78.8276   26.6744  -76.3542 N.am      5 UNK        -0.4615 
     50 C         -78.8690   26.4690  -77.6805 C.2       4 UNK         0.5053 
     51 O         -78.0439   26.9356  -78.4662 O.2       4 UNK        -0.5105 
     52 CA        -79.9709   25.5556  -78.2438 C.3       4 UNK         0.0263 
     53 CB        -79.3890   24.1575  -78.5372 C.3       4 UNK        -0.1981 
     54 N         -81.1522   25.4343  -77.3829 N.am      4 UNK        -0.4224 
     55 C         -82.3591   25.0340  -77.8034 C.2       3 UNK         0.4895 
     56 O         -82.6189   24.7486  -78.9746 O.2       3 UNK        -0.5091 
     57 CA        -83.4524   24.9348  -76.7224 C.3       3 UNK         0.0250 
     58 CB        -84.8209   24.4816  -77.2762 C.3       3 UNK        -0.1996 
     59 N         -83.0404   24.1009  -75.5855 N.am      3 UNK        -0.4254 
     60 C         -82.7415   22.7912  -75.5793 C.2       2 UNK         0.5004 
     61 O         -82.8066   22.0577  -76.5671 O.2       2 UNK        -0.5226 
     62 CA        -82.2940   22.2197  -74.2157 C.3       2 UNK         0.0269 
     63 CB        -81.7826   20.7642  -74.2973 C.3       2 UNK        -0.1926 
     64 N         -81.3229   23.0980  -73.5453 N.am      2 UNK        -0.4687 
     65 C         -80.0912   23.4125  -73.9794 C.2       1 UNK         0.5165 
     66 O         -79.5352   22.8757  -74.9370 O.2       1 UNK        -0.5079 
     67 H67       -81.7319   28.3960  -73.1108 H         1 UNK         0.0900 
     68 H68       -81.8457   27.3490  -71.6942 H         1 UNK         0.0900 
     69 H69       -83.0173   27.1906  -73.0066 H         1 UNK         0.0900 
     70 H70       -80.3559   25.6527  -71.7296 H         1 UNK         0.2959 
     71 H71       -78.8254   25.0655  -74.0833 H         1 UNK         0.1079 
     72 H72       -77.9127   23.1570  -72.4900 H         1 UNK         0.0837 
     73 H73       -78.7920   23.9930  -71.2382 H         1 UNK         0.0837 
     74 H74       -78.5650   26.4349  -70.7322 H         1 UNK         0.0685 
     75 H75       -76.9982   26.3343  -69.9735 H         1 UNK         0.0685 
     76 H76       -79.0136   28.1302  -72.5219 H         1 UNK         0.1434 
     77 H77       -76.3921   31.5068  -72.6927 H         1 UNK         0.1329 
     78 H78       -75.2859   28.0546  -70.4043 H         1 UNK         0.1335 
     79 H79       -74.1941   30.2915  -70.0342 H         1 UNK         0.0680 
     80 H80       -74.5539   31.6413  -71.0747 H         1 UNK         0.0680 
     81 H81       -72.7631   31.9124  -73.7046 H         1 UNK         0.1032 
     82 H82       -74.3795   31.3053  -73.6552 H         1 UNK         0.1032 
     83 H83       -73.5701   29.1475  -74.7425 H         1 UNK         0.0461 
     84 H84       -73.6028   30.7758  -78.2287 H         1 UNK         0.3453 
     85 H85       -72.3021   29.9062  -77.4510 H         1 UNK         0.3453 
     86 H86       -71.4416   28.7480  -75.0630 H         1 UNK         0.2984 
     87 H87       -69.0768   29.9590  -76.5512 H         1 UNK         0.0554 
     88 H88       -68.1105   31.9075  -75.4237 H         1 UNK         0.0847 
     89 H89       -67.1109   30.5068  -75.0831 H         1 UNK         0.0847 
     90 H90       -68.2157   31.1262  -73.8558 H         1 UNK         0.0847 
     91 H91       -69.0081   27.9375  -75.7047 H         1 UNK         0.3141 
     92 H92       -68.7489   26.2259  -74.4656 H         1 UNK         0.0743 
     93 H93       -68.3522   26.6578  -71.4569 H         1 UNK         0.0784 
     94 H94       -67.9681   25.1957  -72.3662 H         1 UNK         0.0784 
     95 H95       -67.0704   26.6757  -72.6592 H         1 UNK         0.0784 
     96 H96       -70.4595   25.6578  -72.3108 H         1 UNK         0.3213 
     97 H97       -72.5009   24.6244  -72.9936 H         1 UNK         0.0855 
     98 H98       -72.6006   26.7312  -71.5044 H         1 UNK         0.0814 
     99 H99       -74.1389   25.9204  -71.7187 H         1 UNK         0.0814 
    100 H100      -73.7874   27.3860  -72.6260 H         1 UNK         0.0814 
    101 H101      -73.9521   26.3583  -74.9575 H         1 UNK         0.3105 
    102 H102      -74.5948   24.9853  -76.9370 H         1 UNK         0.0547 
    103 H103      -74.8604   22.5060  -76.9203 H         1 UNK         0.0837 
    104 H104      -76.3301   22.6531  -75.9655 H         1 UNK         0.0837 
    105 H105      -76.2709   23.2896  -77.6092 H         1 UNK         0.0837 
    106 H106      -77.2414   24.8905  -75.8030 H         1 UNK         0.3020 
    107 H107      -77.9607   27.1727  -74.5535 H         1 UNK         0.1245 
    108 H108      -77.7046   29.1764  -76.8391 H         1 UNK         0.0781 
    109 H109      -76.9267   29.3754  -75.2923 H         1 UNK         0.0781 
    110 H110      -79.6164   30.9458  -73.1153 H         1 UNK         0.0836 
    111 H111      -78.2770   31.5074  -74.0830 H         1 UNK         0.0836 
    112 H112      -79.6092   26.3680  -75.7839 H         1 UNK         0.3022 
    113 H113      -80.2844   26.0050  -79.1887 H         1 UNK         0.0747 
    114 H114      -78.4925   24.2241  -79.1553 H         1 UNK         0.0793 
    115 H115      -79.1156   23.6375  -77.6182 H         1 UNK         0.0793 
    116 H116      -80.1012   23.5310  -79.0740 H         1 UNK         0.0793 
    117 H117      -81.0619   25.7075  -76.4067 H         1 UNK         0.3047 
    118 H118      -83.5800   25.9450  -76.3295 H         1 UNK         0.0822 
    119 H119      -84.7715   23.4883  -77.7235 H         1 UNK         0.0807 
    120 H120      -85.1740   25.1663  -78.0482 H         1 UNK         0.0807 
    121 H121      -85.5783   24.4593  -76.4928 H         1 UNK         0.0807 
    122 H122      -82.8992   24.6072  -74.7233 H         1 UNK         0.2946 
    123 H123      -83.1878   22.2110  -73.5891 H         1 UNK         0.1144 
    124 H124      -81.4743   20.3961  -73.3189 H         1 UNK         0.0793 
    125 H125      -80.9357   20.6640  -74.9766 H         1 UNK         0.0793 
    126 H126      -82.5659   20.0983  -74.6613 H         1 UNK         0.0793 
    127 H127      -81.6707   23.6018  -72.7409 H         1 UNK         0.2896 
@<TRIPOS>BOND
     1    1    2 1    
     2    1   67 1    
     3    1   68 1    
     4    1   69 1    
     5    2    3 2    
     6    2    4 am   BACKBONE|DICT|INTERRES
     7    4    5 1    
     8    4   70 1    
     9    5    6 1    
    10    5   65 1    
    11    5   71 1    
    12    6    7 1    
    13    6   72 1    
    14    6   73 1    
    15    7    8 1    
    16    8    9 1    
    17    8   74 1    
    18    8   75 1    
    19    9   10 ar   
    20    9   14 ar   
    21   10   11 ar   
    22   10   76 1    
    23   11   12 ar   
    24   11   48 1    
    25   12   13 ar   
    26   12   77 1    
    27   13   14 ar   
    28   13   15 1    
    29   14   78 1    
    30   15   16 1    
    31   15   79 1    
    32   15   80 1    
    33   16   17 1    
    34   17   18 1    
    35   17   81 1    
    36   17   82 1    
    37   18   19 1    
    38   18   22 1    
    39   18   83 1    
    40   19   20 am   BACKBONE|DICT|INTERRES
    41   19   21 2    
    42   20   84 1    
    43   20   85 1    
    44   22   23 am   BACKBONE|DICT|INTERRES
    45   22   86 1    
    46   23   24 2    
    47   23   25 1    
    48   25   26 1    
    49   25   27 1    
    50   25   87 1    
    51   26   88 1    
    52   26   89 1    
    53   26   90 1    
    54   27   28 am   BACKBONE|DICT|INTERRES
    55   27   91 1    
    56   28   29 2    
    57   28   30 1    
    58   30   31 1    
    59   30   32 1    
    60   30   92 1    
    61   31   93 1    
    62   31   94 1    
    63   31   95 1    
    64   32   33 am   BACKBONE|DICT|INTERRES
    65   32   96 1    
    66   33   34 2    
    67   33   35 1    
    68   35   36 1    
    69   35   37 1    
    70   35   97 1    
    71   36   98 1    
    72   36   99 1    
    73   36  100 1    
    74   37   38 am   BACKBONE|DICT|INTERRES
    75   37  101 1    
    76   38   39 2    
    77   38   40 1    
    78   40   41 1    
    79   40   42 1    
    80   40  102 1    
    81   41  103 1    
    82   41  104 1    
    83   41  105 1    
    84   42   43 am   BACKBONE|DICT|INTERRES
    85   42  106 1    
    86   43   44 2    
    87   43   45 1    
    88   45   46 1    
    89   45   49 1    
    90   45  107 1    
    91   46   47 1    
    92   46  108 1    
    93   46  109 1    
    94   47   48 1    
    95   48  110 1    
    96   48  111 1    
    97   49   50 am   BACKBONE|DICT|INTERRES
    98   49  112 1    
    99   50   51 2    
   100   50   52 1    
   101   52   53 1    
   102   52   54 1    
   103   52  113 1    
   104   53  114 1    
   105   53  115 1    
   106   53  116 1    
   107   54   55 am   BACKBONE|DICT|INTERRES
   108   54  117 1    
   109   55   56 2    
   110   55   57 1    
   111   57   58 1    
   112   57   59 1    
   113   57  118 1    
   114   58  119 1    
   115   58  120 1    
   116   58  121 1    
   117   59   60 am   BACKBONE|DICT|INTERRES
   118   59  122 1    
   119   60   61 2    
   120   60   62 1    
   121   62   63 1    
   122   62   64 1    
   123   62  123 1    
   124   63  124 1    
   125   63  125 1    
   126   63  126 1    
   127   64   65 am   BACKBONE|DICT|INTERRES
   128   64  127 1    
   129   65   66 2    
@<TRIPOS>SUBSTRUCTURE
     1 UNK         1 GROUP             0       ****    0 ROOT    
