@<TRIPOS>MOLECULE
3R135
127   129    1
SMALL
USER_CHARGES


@<TRIPOS>ATOM
      1 CA        -78.8123   21.7887  -71.7767 C.3       0 UNK        -0.1998 
      2 C         -79.6639   23.0262  -72.0132 C.2       0 UNK         0.4909 
      3 O         -80.6915   22.9409  -72.6862 O.2       0 UNK        -0.5240 
      4 N         -79.2354   24.1784  -71.4788 N.am      1 UNK        -0.4739 
      5 CA        -79.8890   25.4863  -71.6128 C.3       1 UNK         0.0864 
      6 C6        -79.1315   26.5641  -70.7997 C.3       11 UNK        -0.0881 
      7 S7        -80.1643   28.0228  -70.4546 S.3       11 UNK        -0.2682 
      8 C8        -78.8786   29.2496  -70.0358 C.3       11 UNK         0.0289 
      9 C9        -78.2634   30.0255  -71.2049 C.ar      11 UNK        -0.0687 
     10 C10       -78.7756   29.9941  -72.5112 C.ar      11 UNK        -0.0823 
     11 C11       -78.2388   30.8162  -73.5094 C.ar      11 UNK        -0.0830 
     12 C12       -77.1607   31.6549  -73.2025 C.ar      11 UNK        -0.1021 
     13 C13       -76.6302   31.6894  -71.9089 C.ar      11 UNK        -0.0753 
     14 C14       -77.1855   30.8706  -70.9224 C.ar      11 UNK        -0.0933 
     15 C15       -75.5282   32.6810  -71.5477 C.3       11 UNK         0.0166 
     16 S16       -73.8579   32.1110  -71.9969 S.3       11 UNK        -0.2615 
     17 C17       -73.5220   30.8345  -70.7280 C.3       11 UNK        -0.0865 
     18 CA        -72.4463   29.7969  -71.1758 C.3       10 UNK         0.0862 
     19 C         -72.1409   28.7378  -70.0738 C.2       10 UNK         0.5551 
     20 N         -71.9417   27.4685  -70.4102 N.am      10 UNK        -0.7319 
     21 O         -72.0480   29.0783  -68.8969 O.2       10 UNK        -0.5018 
     22 N         -72.7133   29.2410  -72.5126 N.am      10 UNK        -0.4509 
     23 C         -73.8200   28.5799  -72.8707 C.2       10 UNK         0.4899 
     24 O         -74.7010   28.2117  -72.0938 O.2       10 UNK        -0.4839 
     25 CA        -73.9780   28.3155  -74.3718 C.3       9 UNK         0.0222 
     26 CB        -74.3121   29.6343  -75.0944 C.3       9 UNK        -0.1966 
     27 N         -72.8263   27.6955  -75.0307 N.am      9 UNK        -0.4218 
     28 C         -72.1600   26.6001  -74.6460 C.2       9 UNK         0.5020 
     29 O         -72.3642   25.9933  -73.5924 O.2       9 UNK        -0.5274 
     30 CA        -71.0935   26.0934  -75.6379 C.3       8 UNK         0.0270 
     31 CB        -70.1542   25.0474  -75.0083 C.3       8 UNK        -0.1976 
     32 N         -71.6965   25.5212  -76.8466 N.am      8 UNK        -0.4313 
     33 C         -72.2808   26.2076  -77.8390 C.2       8 UNK         0.5041 
     34 O         -72.3668   27.4378  -77.8509 O.2       8 UNK        -0.5577 
     35 CA        -72.8591   25.4062  -79.0180 C.3       7 UNK         0.0284 
     36 CB        -72.5279   23.8984  -78.9962 C.3       7 UNK        -0.1958 
     37 N         -74.3085   25.5846  -79.0454 N.am      7 UNK        -0.4454 
     38 C         -75.0580   25.7137  -80.1489 C.2       7 UNK         0.5089 
     39 O         -74.5919   25.7018  -81.2893 O.2       7 UNK        -0.5125 
     40 CA        -76.5869   25.8629  -79.9782 C.3       6 UNK         0.0408 
     41 CB        -77.2985   24.5599  -80.3764 C.3       6 UNK        -0.1791 
     42 N         -77.0002   26.2278  -78.6216 N.am      6 UNK        -0.4762 
     43 C         -76.7906   27.4230  -78.0516 C.2       6 UNK         0.5007 
     44 O         -76.3469   28.3913  -78.6691 O.2       6 UNK        -0.5032 
     45 CA        -77.0569   27.5448  -76.5323 C.3       5 UNK         0.0783 
     46 C46       -78.2765   28.4425  -76.1985 C.3       11 UNK        -0.0857 
     47 S47       -77.8581   30.2182  -76.2248 S.3       11 UNK        -0.2512 
     48 C48       -78.8953   30.8878  -74.8852 C.3       11 UNK         0.0225 
     49 N         -77.1211   26.2612  -75.8229 N.am      5 UNK        -0.4615 
     50 C         -76.1476   25.3425  -75.7463 C.2       4 UNK         0.5053 
     51 O         -75.0555   25.4584  -76.2965 O.2       4 UNK        -0.5105 
     52 CA        -76.4646   24.0562  -74.9712 C.3       4 UNK         0.0263 
     53 CB        -76.1302   24.2243  -73.4802 C.3       4 UNK        -0.1981 
     54 N         -77.8659   23.6608  -75.1374 N.am      4 UNK        -0.4224 
     55 C         -78.3608   23.0950  -76.2491 C.2       3 UNK         0.4895 
     56 O         -77.6694   22.7696  -77.2137 O.2       3 UNK        -0.5091 
     57 CA        -79.8821   22.8749  -76.3128 C.3       3 UNK         0.0250 
     58 CB        -80.2514   21.4771  -75.7916 C.3       3 UNK        -0.1996 
     59 N         -80.6290   23.8954  -75.5721 N.am      3 UNK        -0.4254 
     60 C         -80.8222   25.1478  -76.0159 C.2       2 UNK         0.5004 
     61 O         -80.4474   25.5465  -77.1185 O.2       2 UNK        -0.5226 
     62 CA        -81.5117   26.1400  -75.0584 C.3       2 UNK         0.0269 
     63 CB        -83.0305   26.1462  -75.2914 C.3       2 UNK        -0.1926 
     64 N         -81.2376   25.8871  -73.6387 N.am      2 UNK        -0.4687 
     65 C         -80.0130   25.8859  -73.0954 C.2       1 UNK         0.5165 
     66 O         -78.9905   26.1210  -73.7374 O.2       1 UNK        -0.5079 
     67 H67       -79.4224   20.9888  -71.3580 H         1 UNK         0.0900 
     68 H68       -78.3892   21.4382  -72.7176 H         1 UNK         0.0900 
     69 H69       -77.9915   21.9840  -71.0869 H         1 UNK         0.0900 
     70 H70       -78.3760   24.1789  -70.9485 H         1 UNK         0.2959 
     71 H71       -80.8921   25.3779  -71.1943 H         1 UNK         0.1079 
     72 H72       -78.2087   26.8690  -71.2996 H         1 UNK         0.0837 
     73 H73       -78.8280   26.1591  -69.8329 H         1 UNK         0.0837 
     74 H74       -79.3281   29.9747  -69.3561 H         1 UNK         0.0685 
     75 H75       -78.0875   28.7544  -69.4704 H         1 UNK         0.0685 
     76 H76       -79.6245   29.3697  -72.7495 H         1 UNK         0.1434 
     77 H77       -76.7575   32.3089  -73.9638 H         1 UNK         0.1329 
     78 H78       -76.8001   30.9200  -69.9131 H         1 UNK         0.1335 
     79 H79       -75.7176   33.6251  -72.0606 H         1 UNK         0.0680 
     80 H80       -75.5529   32.9115  -70.4814 H         1 UNK         0.0680 
     81 H81       -73.2038   31.3426  -69.8160 H         1 UNK         0.1032 
     82 H82       -74.4505   30.3213  -70.4774 H         1 UNK         0.1032 
     83 H83       -71.5103   30.3449  -71.2887 H         1 UNK         0.0461 
     84 H84       -72.0414   27.1757  -71.3717 H         1 UNK         0.3453 
     85 H85       -71.7326   26.7921  -69.6935 H         1 UNK         0.3453 
     86 H86       -72.0380   29.4700  -73.2268 H         1 UNK         0.2984 
     87 H87       -74.8106   27.6223  -74.4771 H         1 UNK         0.0554 
     88 H88       -73.5230   30.3770  -74.9703 H         1 UNK         0.0847 
     89 H89       -75.2275   30.0716  -74.6945 H         1 UNK         0.0847 
     90 H90       -74.4549   29.4923  -76.1656 H         1 UNK         0.0847 
     91 H91       -72.6181   28.0239  -75.9699 H         1 UNK         0.3141 
     92 H92       -70.4834   26.9513  -75.9292 H         1 UNK         0.0743 
     93 H93       -70.6908   24.1435  -74.7171 H         1 UNK         0.0784 
     94 H94       -69.3607   24.7597  -75.6983 H         1 UNK         0.0784 
     95 H95       -69.6742   25.4440  -74.1125 H         1 UNK         0.0784 
     96 H96       -71.7134   24.5133  -76.9002 H         1 UNK         0.3213 
     97 H97       -72.4189   25.8393  -79.9188 H         1 UNK         0.0855 
     98 H98       -72.9802   23.3921  -78.1423 H         1 UNK         0.0814 
     99 H99       -71.4510   23.7270  -78.9636 H         1 UNK         0.0814 
    100 H100      -72.8969   23.4080  -79.8972 H         1 UNK         0.0814 
    101 H101      -74.7515   25.6354  -78.1295 H         1 UNK         0.3105 
    102 H102      -76.9167   26.6516  -80.6576 H         1 UNK         0.0547 
    103 H103      -77.0613   24.2836  -81.4047 H         1 UNK         0.0837 
    104 H104      -76.9995   23.7268  -79.7390 H         1 UNK         0.0837 
    105 H105      -78.3819   24.6610  -80.3108 H         1 UNK         0.0837 
    106 H106      -77.3705   25.4852  -78.0443 H         1 UNK         0.3020 
    107 H107      -76.1740   28.0368  -76.1410 H         1 UNK         0.1245 
    108 H108      -78.6400   28.2195  -75.1953 H         1 UNK         0.0781 
    109 H109      -79.1144   28.2486  -76.8710 H         1 UNK         0.0781 
    110 H110      -79.8631   30.3836  -74.8870 H         1 UNK         0.0836 
    111 H111      -79.1078   31.9338  -75.1107 H         1 UNK         0.0836 
    112 H112      -77.9494   26.1141  -75.2511 H         1 UNK         0.3022 
    113 H113      -75.8298   23.2622  -75.3708 H         1 UNK         0.0747 
    114 H114      -76.3058   23.3023  -72.9268 H         1 UNK         0.0793 
    115 H115      -75.0787   24.4855  -73.3489 H         1 UNK         0.0793 
    116 H116      -76.7162   25.0168  -73.0146 H         1 UNK         0.0793 
    117 H117      -78.5110   23.9663  -74.4228 H         1 UNK         0.3047 
    118 H118      -80.1771   22.9284  -77.3633 H         1 UNK         0.0822 
    119 H119      -81.3230   21.2942  -75.8723 H         1 UNK         0.0807 
    120 H120      -79.9664   21.3415  -74.7485 H         1 UNK         0.0807 
    121 H121      -79.7465   20.7014  -76.3691 H         1 UNK         0.0807 
    122 H122      -80.9416   23.6492  -74.6378 H         1 UNK         0.2946 
    123 H123      -81.1250   27.1337  -75.2953 H         1 UNK         0.1144 
    124 H124      -83.5212   26.9140  -74.6929 H         1 UNK         0.0793 
    125 H125      -83.4814   25.1848  -75.0422 H         1 UNK         0.0793 
    126 H126      -83.2640   26.3549  -76.3366 H         1 UNK         0.0793 
    127 H127      -82.0295   25.6452  -73.0600 H         1 UNK         0.2896 
@<TRIPOS>BOND
     1    1    2 1    
     2    1   67 1    
     3    1   68 1    
     4    1   69 1    
     5    2    3 2    
     6    2    4 am   BACKBONE|DICT|INTERRES
     7    4    5 1    
     8    4   70 1    
     9    5    6 1    
    10    5   65 1    
    11    5   71 1    
    12    6    7 1    
    13    6   72 1    
    14    6   73 1    
    15    7    8 1    
    16    8    9 1    
    17    8   74 1    
    18    8   75 1    
    19    9   10 ar   
    20    9   14 ar   
    21   10   11 ar   
    22   10   76 1    
    23   11   12 ar   
    24   11   48 1    
    25   12   13 ar   
    26   12   77 1    
    27   13   14 ar   
    28   13   15 1    
    29   14   78 1    
    30   15   16 1    
    31   15   79 1    
    32   15   80 1    
    33   16   17 1    
    34   17   18 1    
    35   17   81 1    
    36   17   82 1    
    37   18   19 1    
    38   18   22 1    
    39   18   83 1    
    40   19   20 am   BACKBONE|DICT|INTERRES
    41   19   21 2    
    42   20   84 1    
    43   20   85 1    
    44   22   23 am   BACKBONE|DICT|INTERRES
    45   22   86 1    
    46   23   24 2    
    47   23   25 1    
    48   25   26 1    
    49   25   27 1    
    50   25   87 1    
    51   26   88 1    
    52   26   89 1    
    53   26   90 1    
    54   27   28 am   BACKBONE|DICT|INTERRES
    55   27   91 1    
    56   28   29 2    
    57   28   30 1    
    58   30   31 1    
    59   30   32 1    
    60   30   92 1    
    61   31   93 1    
    62   31   94 1    
    63   31   95 1    
    64   32   33 am   BACKBONE|DICT|INTERRES
    65   32   96 1    
    66   33   34 2    
    67   33   35 1    
    68   35   36 1    
    69   35   37 1    
    70   35   97 1    
    71   36   98 1    
    72   36   99 1    
    73   36  100 1    
    74   37   38 am   BACKBONE|DICT|INTERRES
    75   37  101 1    
    76   38   39 2    
    77   38   40 1    
    78   40   41 1    
    79   40   42 1    
    80   40  102 1    
    81   41  103 1    
    82   41  104 1    
    83   41  105 1    
    84   42   43 am   BACKBONE|DICT|INTERRES
    85   42  106 1    
    86   43   44 2    
    87   43   45 1    
    88   45   46 1    
    89   45   49 1    
    90   45  107 1    
    91   46   47 1    
    92   46  108 1    
    93   46  109 1    
    94   47   48 1    
    95   48  110 1    
    96   48  111 1    
    97   49   50 am   BACKBONE|DICT|INTERRES
    98   49  112 1    
    99   50   51 2    
   100   50   52 1    
   101   52   53 1    
   102   52   54 1    
   103   52  113 1    
   104   53  114 1    
   105   53  115 1    
   106   53  116 1    
   107   54   55 am   BACKBONE|DICT|INTERRES
   108   54  117 1    
   109   55   56 2    
   110   55   57 1    
   111   57   58 1    
   112   57   59 1    
   113   57  118 1    
   114   58  119 1    
   115   58  120 1    
   116   58  121 1    
   117   59   60 am   BACKBONE|DICT|INTERRES
   118   59  122 1    
   119   60   61 2    
   120   60   62 1    
   121   62   63 1    
   122   62   64 1    
   123   62  123 1    
   124   63  124 1    
   125   63  125 1    
   126   63  126 1    
   127   64   65 am   BACKBONE|DICT|INTERRES
   128   64  127 1    
   129   65   66 2    
@<TRIPOS>SUBSTRUCTURE
     1 UNK         1 GROUP             0       ****    0 ROOT    
