@<TRIPOS>MOLECULE
3R135
127   129    1
SMALL
USER_CHARGES


@<TRIPOS>ATOM
      1 CA        -82.5132   22.3132  -72.9952 C.3       0 UNK        -0.1998 
      2 C         -81.7030   23.5749  -73.2444 C.2       0 UNK         0.4909 
      3 O         -80.9247   23.6174  -74.2003 O.2       0 UNK        -0.5240 
      4 N         -81.8949   24.6065  -72.4064 N.am      1 UNK        -0.4739 
      5 CA        -81.2107   25.9146  -72.3733 C.3       1 UNK         0.0864 
      6 C6        -79.6812   25.7939  -72.1471 C.3       11 UNK        -0.0881 
      7 S7        -79.2103   25.2815  -70.4623 S.3       11 UNK        -0.2682 
      8 C8        -79.1450   26.8713  -69.5626 C.3       11 UNK         0.0289 
      9 C9        -78.1790   27.8769  -70.1804 C.ar      11 UNK        -0.0687 
     10 C10       -78.6550   28.8228  -71.0935 C.ar      11 UNK        -0.0823 
     11 C11       -77.7818   29.7268  -71.6981 C.ar      11 UNK        -0.0830 
     12 C12       -76.4422   29.7481  -71.3099 C.ar      11 UNK        -0.1021 
     13 C13       -75.9413   28.8032  -70.4114 C.ar      11 UNK        -0.0753 
     14 C14       -76.8182   27.8647  -69.8506 C.ar      11 UNK        -0.0933 
     15 C15       -74.4599   28.7993  -70.0453 C.3       11 UNK         0.0166 
     16 S16       -73.3648   28.5543  -71.4912 S.3       11 UNK        -0.2615 
     17 C17       -73.0238   30.2640  -72.0519 C.3       11 UNK        -0.0865 
     18 CA        -73.5589   30.5585  -73.4881 C.3       10 UNK         0.0862 
     19 C         -73.5814   32.0727  -73.8701 C.2       10 UNK         0.5551 
     20 N         -73.8718   32.9674  -72.9337 N.am      10 UNK        -0.7319 
     21 O         -73.3933   32.4531  -75.0247 O.2       10 UNK        -0.5018 
     22 N         -72.9385   29.7059  -74.5109 N.am      10 UNK        -0.4509 
     23 C         -71.6739   29.7518  -74.9465 C.2       10 UNK         0.4899 
     24 O         -70.8050   30.4969  -74.4885 O.2       10 UNK        -0.4839 
     25 CA        -71.3433   28.7773  -76.0926 C.3       9 UNK         0.0222 
     26 CB        -69.8766   28.8584  -76.5680 C.3       9 UNK        -0.1966 
     27 N         -71.7238   27.4013  -75.7556 N.am      9 UNK        -0.4218 
     28 C         -71.2386   26.6418  -74.7603 C.2       9 UNK         0.5020 
     29 O         -70.3072   26.9784  -74.0274 O.2       9 UNK        -0.5274 
     30 CA        -71.9010   25.2718  -74.5221 C.3       8 UNK         0.0270 
     31 CB        -72.6068   25.2487  -73.1564 C.3       8 UNK        -0.1976 
     32 N         -72.8550   24.8899  -75.5703 N.am      8 UNK        -0.4313 
     33 C         -72.4939   24.3656  -76.7509 C.2       8 UNK         0.5041 
     34 O         -71.3252   24.1335  -77.0631 O.2       8 UNK        -0.5577 
     35 CA        -73.6094   24.0544  -77.7637 C.3       7 UNK         0.0284 
     36 CB        -74.2371   22.6838  -77.4680 C.3       7 UNK        -0.1958 
     37 N         -74.6508   25.0855  -77.8406 N.am      7 UNK        -0.4454 
     38 C         -74.4398   26.3323  -78.2899 C.2       7 UNK         0.5089 
     39 O         -73.3356   26.7624  -78.6237 O.2       7 UNK        -0.5125 
     40 CA        -75.6578   27.2702  -78.3610 C.3       6 UNK         0.0408 
     41 CB        -76.5504   26.9309  -79.5651 C.3       6 UNK        -0.1791 
     42 N         -76.4551   27.2584  -77.1353 N.am      6 UNK        -0.4762 
     43 C         -76.0060   27.6673  -75.9387 C.2       6 UNK         0.5007 
     44 O         -74.8788   28.1250  -75.7499 O.2       6 UNK        -0.5032 
     45 CA        -76.9598   27.4632  -74.7445 C.3       5 UNK         0.0783 
     46 C46       -78.0952   28.5260  -74.7296 C.3       11 UNK        -0.0857 
     47 S47       -77.5094   30.2308  -74.4106 S.3       11 UNK        -0.2512 
     48 C48       -78.2716   30.6482  -72.8038 C.3       11 UNK         0.0225 
     49 N         -77.4685   26.0808  -74.7471 N.am      5 UNK        -0.4615 
     50 C         -76.6915   24.9923  -74.5987 C.2       4 UNK         0.5053 
     51 O         -75.4924   25.0485  -74.3384 O.2       4 UNK        -0.5105 
     52 CA        -77.3074   23.6063  -74.8638 C.3       4 UNK         0.0263 
     53 CB        -77.5887   22.8108  -73.5770 C.3       4 UNK        -0.1981 
     54 N         -78.4883   23.6513  -75.7267 N.am      4 UNK        -0.4224 
     55 C         -78.4145   23.8596  -77.0504 C.2       3 UNK         0.4895 
     56 O         -77.3546   24.0093  -77.6592 O.2       3 UNK        -0.5091 
     57 CA        -79.7430   23.9766  -77.8120 C.3       3 UNK         0.0250 
     58 CB        -80.3862   22.5941  -78.0051 C.3       3 UNK        -0.1996 
     59 N         -80.6880   24.8718  -77.1426 N.am      3 UNK        -0.4254 
     60 C         -80.4902   26.1854  -76.9560 C.2       2 UNK         0.5004 
     61 O         -79.5004   26.7951  -77.3616 O.2       2 UNK        -0.5226 
     62 CA        -81.5217   26.9078  -76.0845 C.3       2 UNK         0.0269 
     63 CB        -82.9235   26.9054  -76.7183 C.3       2 UNK        -0.1926 
     64 N         -81.5477   26.2384  -74.7879 N.am      2 UNK        -0.4687 
     65 C         -81.4797   26.8263  -73.5930 C.2       1 UNK         0.5165 
     66 O         -81.5718   28.0427  -73.4268 O.2       1 UNK        -0.5079 
     67 H67       -83.1333   22.0893  -73.8627 H         1 UNK         0.0900 
     68 H68       -81.8448   21.4693  -72.8270 H         1 UNK         0.0900 
     69 H69       -83.1640   22.4099  -72.1265 H         1 UNK         0.0900 
     70 H70       -82.5792   24.4889  -71.6717 H         1 UNK         0.2959 
     71 H71       -81.6338   26.4472  -71.5198 H         1 UNK         0.1079 
     72 H72       -79.2605   25.0794  -72.8451 H         1 UNK         0.0837 
     73 H73       -79.1582   26.7120  -72.3890 H         1 UNK         0.0837 
     74 H74       -80.1496   27.2946  -69.5162 H         1 UNK         0.0685 
     75 H75       -78.8550   26.6753  -68.5293 H         1 UNK         0.0685 
     76 H76       -79.7007   28.8219  -71.3707 H         1 UNK         0.1434 
     77 H77       -75.7847   30.4848  -71.7400 H         1 UNK         0.1329 
     78 H78       -76.4461   27.1264  -69.1535 H         1 UNK         0.1335 
     79 H79       -74.2551   27.9950  -69.3373 H         1 UNK         0.0680 
     80 H80       -74.2069   29.7241  -69.5257 H         1 UNK         0.0680 
     81 H81       -73.4490   30.9511  -71.3216 H         1 UNK         0.1032 
     82 H82       -71.9463   30.4306  -72.0109 H         1 UNK         0.1032 
     83 H83       -74.6051   30.2631  -73.5262 H         1 UNK         0.0461 
     84 H84       -73.9053   33.9414  -73.1916 H         1 UNK         0.3453 
     85 H85       -74.0605   32.7000  -71.9818 H         1 UNK         0.3453 
     86 H86       -73.5834   29.0698  -74.9779 H         1 UNK         0.2984 
     87 H87       -71.9751   29.0662  -76.9341 H         1 UNK         0.0554 
     88 H88       -69.6404   29.8616  -76.9246 H         1 UNK         0.0847 
     89 H89       -69.6883   28.1688  -77.3907 H         1 UNK         0.0847 
     90 H90       -69.1731   28.6272  -75.7678 H         1 UNK         0.0847 
     91 H91       -72.4978   27.0265  -76.2886 H         1 UNK         0.3141 
     92 H92       -71.1007   24.5293  -74.4927 H         1 UNK         0.0743 
     93 H93       -73.0614   24.2782  -72.9573 H         1 UNK         0.0784 
     94 H94       -71.9041   25.4513  -72.3471 H         1 UNK         0.0784 
     95 H95       -73.3901   26.0051  -73.0993 H         1 UNK         0.0784 
     96 H96       -73.8405   25.0222  -75.3523 H         1 UNK         0.3213 
     97 H97       -73.1453   23.9979  -78.7510 H         1 UNK         0.0855 
     98 H98       -74.6310   22.6311  -76.4546 H         1 UNK         0.0814 
     99 H99       -73.4934   21.8915  -77.5630 H         1 UNK         0.0814 
    100 H100      -75.0463   22.4531  -78.1612 H         1 UNK         0.0814 
    101 H101      -75.6047   24.7971  -77.6340 H         1 UNK         0.3105 
    102 H102      -75.2840   28.2870  -78.4987 H         1 UNK         0.0547 
    103 H103      -77.3689   27.6441  -79.6640 H         1 UNK         0.0837 
    104 H104      -75.9797   26.9611  -80.4941 H         1 UNK         0.0837 
    105 H105      -76.9864   25.9351  -79.4827 H         1 UNK         0.0837 
    106 H106      -77.4048   26.9077  -77.2098 H         1 UNK         0.3020 
    107 H107      -76.3704   27.5869  -73.8317 H         1 UNK         0.1245 
    108 H108      -78.8380   28.2731  -73.9767 H         1 UNK         0.0781 
    109 H109      -78.6343   28.5359  -75.6766 H         1 UNK         0.0781 
    110 H110      -79.3578   30.6052  -72.9009 H         1 UNK         0.0836 
    111 H111      -78.0246   31.6799  -72.5495 H         1 UNK         0.0836 
    112 H112      -78.4269   25.9490  -75.0295 H         1 UNK         0.3022 
    113 H113      -76.5402   23.0423  -75.3936 H         1 UNK         0.0747 
    114 H114      -78.5102   23.1034  -73.0818 H         1 UNK         0.0793 
    115 H115      -77.6723   21.7464  -73.7964 H         1 UNK         0.0793 
    116 H116      -76.7773   22.9248  -72.8565 H         1 UNK         0.0793 
    117 H117      -79.3974   23.5501  -75.2786 H         1 UNK         0.3047 
    118 H118      -79.5243   24.3945  -78.7972 H         1 UNK         0.0822 
    119 H119      -79.6983   21.9107  -78.5051 H         1 UNK         0.0807 
    120 H120      -81.2829   22.6571  -78.6220 H         1 UNK         0.0807 
    121 H121      -80.6649   22.1389  -77.0535 H         1 UNK         0.0807 
    122 H122      -81.5195   24.4439  -76.7620 H         1 UNK         0.2946 
    123 H123      -81.1907   27.9431  -75.9709 H         1 UNK         0.1144 
    124 H124      -83.6247   27.4823  -76.1151 H         1 UNK         0.0793 
    125 H125      -83.3281   25.8982  -76.8222 H         1 UNK         0.0793 
    126 H126      -82.9033   27.3566  -77.7112 H         1 UNK         0.0793 
    127 H127      -81.4081   25.2295  -74.7892 H         1 UNK         0.2896 
@<TRIPOS>BOND
     1    1    2 1    
     2    1   67 1    
     3    1   68 1    
     4    1   69 1    
     5    2    3 2    
     6    2    4 am   BACKBONE|DICT|INTERRES
     7    4    5 1    
     8    4   70 1    
     9    5    6 1    
    10    5   65 1    
    11    5   71 1    
    12    6    7 1    
    13    6   72 1    
    14    6   73 1    
    15    7    8 1    
    16    8    9 1    
    17    8   74 1    
    18    8   75 1    
    19    9   10 ar   
    20    9   14 ar   
    21   10   11 ar   
    22   10   76 1    
    23   11   12 ar   
    24   11   48 1    
    25   12   13 ar   
    26   12   77 1    
    27   13   14 ar   
    28   13   15 1    
    29   14   78 1    
    30   15   16 1    
    31   15   79 1    
    32   15   80 1    
    33   16   17 1    
    34   17   18 1    
    35   17   81 1    
    36   17   82 1    
    37   18   19 1    
    38   18   22 1    
    39   18   83 1    
    40   19   20 am   BACKBONE|DICT|INTERRES
    41   19   21 2    
    42   20   84 1    
    43   20   85 1    
    44   22   23 am   BACKBONE|DICT|INTERRES
    45   22   86 1    
    46   23   24 2    
    47   23   25 1    
    48   25   26 1    
    49   25   27 1    
    50   25   87 1    
    51   26   88 1    
    52   26   89 1    
    53   26   90 1    
    54   27   28 am   BACKBONE|DICT|INTERRES
    55   27   91 1    
    56   28   29 2    
    57   28   30 1    
    58   30   31 1    
    59   30   32 1    
    60   30   92 1    
    61   31   93 1    
    62   31   94 1    
    63   31   95 1    
    64   32   33 am   BACKBONE|DICT|INTERRES
    65   32   96 1    
    66   33   34 2    
    67   33   35 1    
    68   35   36 1    
    69   35   37 1    
    70   35   97 1    
    71   36   98 1    
    72   36   99 1    
    73   36  100 1    
    74   37   38 am   BACKBONE|DICT|INTERRES
    75   37  101 1    
    76   38   39 2    
    77   38   40 1    
    78   40   41 1    
    79   40   42 1    
    80   40  102 1    
    81   41  103 1    
    82   41  104 1    
    83   41  105 1    
    84   42   43 am   BACKBONE|DICT|INTERRES
    85   42  106 1    
    86   43   44 2    
    87   43   45 1    
    88   45   46 1    
    89   45   49 1    
    90   45  107 1    
    91   46   47 1    
    92   46  108 1    
    93   46  109 1    
    94   47   48 1    
    95   48  110 1    
    96   48  111 1    
    97   49   50 am   BACKBONE|DICT|INTERRES
    98   49  112 1    
    99   50   51 2    
   100   50   52 1    
   101   52   53 1    
   102   52   54 1    
   103   52  113 1    
   104   53  114 1    
   105   53  115 1    
   106   53  116 1    
   107   54   55 am   BACKBONE|DICT|INTERRES
   108   54  117 1    
   109   55   56 2    
   110   55   57 1    
   111   57   58 1    
   112   57   59 1    
   113   57  118 1    
   114   58  119 1    
   115   58  120 1    
   116   58  121 1    
   117   59   60 am   BACKBONE|DICT|INTERRES
   118   59  122 1    
   119   60   61 2    
   120   60   62 1    
   121   62   63 1    
   122   62   64 1    
   123   62  123 1    
   124   63  124 1    
   125   63  125 1    
   126   63  126 1    
   127   64   65 am   BACKBONE|DICT|INTERRES
   128   64  127 1    
   129   65   66 2    
@<TRIPOS>SUBSTRUCTURE
     1 UNK         1 GROUP             0       ****    0 ROOT    
