@<TRIPOS>MOLECULE
3R135
127   129    1
SMALL
USER_CHARGES


@<TRIPOS>ATOM
      1 CA        -83.9144   27.9616  -72.6470 C.3       0 UNK        -0.1998 
      2 C         -83.2307   28.1493  -73.9929 C.2       0 UNK         0.4909 
      3 O         -83.9063   28.2049  -75.0209 O.2       0 UNK        -0.5240 
      4 N         -81.8946   28.2478  -73.9937 N.am      1 UNK        -0.4739 
      5 CA        -81.0688   28.4292  -75.1975 C.3       1 UNK         0.0864 
      6 C6        -79.6451   28.9391  -74.8656 C.3       11 UNK        -0.0881 
      7 S7        -79.6374   30.4818  -73.8924 S.3       11 UNK        -0.2682 
      8 C8        -79.3430   29.8634  -72.2049 C.3       11 UNK         0.0289 
      9 C9        -77.8739   29.5673  -71.9391 C.ar      11 UNK        -0.0687 
     10 C10       -77.3684   28.2720  -72.0890 C.ar      11 UNK        -0.0823 
     11 C11       -76.0279   27.9862  -71.7943 C.ar      11 UNK        -0.0830 
     12 C12       -75.2039   29.0194  -71.3330 C.ar      11 UNK        -0.1021 
     13 C13       -75.6954   30.3199  -71.1778 C.ar      11 UNK        -0.0753 
     14 C14       -77.0299   30.5871  -71.4935 C.ar      11 UNK        -0.0933 
     15 C15       -74.8122   31.4305  -70.6222 C.3       11 UNK         0.0166 
     16 S16       -73.5141   31.9469  -71.7902 S.3       11 UNK        -0.2615 
     17 C17       -72.0634   31.0500  -71.1304 C.3       11 UNK        -0.0865 
     18 CA        -71.0323   30.6560  -72.2196 C.3       10 UNK         0.0862 
     19 C         -69.8015   29.9512  -71.5755 C.2       10 UNK         0.5551 
     20 N         -69.5448   28.6774  -71.8471 N.am      10 UNK        -0.7319 
     21 O         -69.0674   30.5763  -70.8141 O.2       10 UNK        -0.5018 
     22 N         -71.6685   29.9273  -73.3284 N.am      10 UNK        -0.4509 
     23 C         -71.1241   29.7178  -74.5335 C.2       10 UNK         0.4899 
     24 O         -69.9869   30.0686  -74.8491 O.2       10 UNK        -0.4839 
     25 CA        -72.0057   29.0042  -75.5710 C.3       9 UNK         0.0222 
     26 CB        -71.7561   27.4882  -75.5384 C.3       9 UNK        -0.1966 
     27 N         -73.4358   29.2586  -75.3849 N.am      9 UNK        -0.4218 
     28 C         -74.0593   30.4254  -75.5922 C.2       9 UNK         0.5020 
     29 O         -73.4872   31.4447  -75.9838 O.2       9 UNK        -0.5274 
     30 CA        -75.5843   30.4331  -75.3528 C.3       8 UNK         0.0270 
     31 CB        -76.2151   31.8209  -75.5698 C.3       8 UNK        -0.1976 
     32 N         -76.2774   29.4529  -76.1973 N.am      8 UNK        -0.4313 
     33 C         -76.2695   28.1297  -75.9899 C.2       8 UNK         0.5041 
     34 O         -75.6788   27.6115  -75.0430 O.2       8 UNK        -0.5577 
     35 CA        -77.0374   27.2329  -76.9792 C.3       7 UNK         0.0284 
     36 CB        -77.2743   27.8686  -78.3674 C.3       7 UNK        -0.1958 
     37 N         -76.4143   25.9100  -77.0922 N.am      7 UNK        -0.4454 
     38 C         -75.1842   25.6341  -77.5531 C.2       7 UNK         0.5089 
     39 O         -74.4372   26.4694  -78.0667 O.2       7 UNK        -0.5125 
     40 CA        -74.7238   24.1675  -77.4321 C.3       6 UNK         0.0408 
     41 CB        -73.2173   23.9787  -77.7121 C.3       6 UNK        -0.1791 
     42 N         -75.1050   23.5436  -76.1586 N.am      6 UNK        -0.4762 
     43 C         -74.7096   23.8885  -74.9197 C.2       6 UNK         0.5007 
     44 O         -73.8928   24.7789  -74.6853 O.2       6 UNK        -0.5032 
     45 CA        -75.2938   23.0627  -73.7516 C.3       5 UNK         0.0783 
     46 C46       -75.4008   23.8214  -72.4017 C.3       11 UNK        -0.0857 
     47 S47       -76.5624   25.2332  -72.3838 S.3       11 UNK        -0.2512 
     48 C48       -75.4119   26.5926  -71.9580 C.3       11 UNK         0.0225 
     49 N         -76.5523   22.4149  -74.1380 N.am      5 UNK        -0.4615 
     50 C         -76.7830   21.0978  -74.0601 C.2       4 UNK         0.5053 
     51 O         -76.0049   20.2962  -73.5422 O.2       4 UNK        -0.5105 
     52 CA        -78.0832   20.5652  -74.6935 C.3       4 UNK         0.0263 
     53 CB        -79.1881   20.4576  -73.6300 C.3       4 UNK        -0.1981 
     54 N         -78.5844   21.3543  -75.8242 N.am      4 UNK        -0.4224 
     55 C         -77.9128   21.6619  -76.9449 C.2       3 UNK         0.4895 
     56 O         -76.7618   21.2914  -77.1731 O.2       3 UNK        -0.5091 
     57 CA        -78.6157   22.5710  -77.9728 C.3       3 UNK         0.0250 
     58 CB        -78.9976   21.7681  -79.2267 C.3       3 UNK        -0.1996 
     59 N         -79.8079   23.2558  -77.4600 N.am      3 UNK        -0.4254 
     60 C         -79.8123   24.1794  -76.4895 C.2       2 UNK         0.5004 
     61 O         -78.7942   24.5662  -75.9088 O.2       2 UNK        -0.5226 
     62 CA        -81.2017   24.6637  -76.0450 C.3       2 UNK         0.0269 
     63 CB        -81.8174   23.6615  -75.0533 C.3       2 UNK        -0.1926 
     64 N         -81.1736   25.9812  -75.4125 N.am      2 UNK        -0.4687 
     65 C         -80.9911   27.1447  -76.0522 C.2       1 UNK         0.5165 
     66 O         -80.7870   27.2335  -77.2635 O.2       1 UNK        -0.5079 
     67 H67       -84.6153   28.7761  -72.4660 H         1 UNK         0.0900 
     68 H68       -84.4705   27.0246  -72.6363 H         1 UNK         0.0900 
     69 H69       -83.1994   27.9414  -71.8246 H         1 UNK         0.0900 
     70 H70       -81.3949   28.2146  -73.1181 H         1 UNK         0.2959 
     71 H71       -81.5550   29.1860  -75.8178 H         1 UNK         0.1079 
     72 H72       -79.0628   28.1719  -74.3553 H         1 UNK         0.0837 
     73 H73       -79.1136   29.1556  -75.7928 H         1 UNK         0.0837 
     74 H74       -79.9487   28.9765  -72.0182 H         1 UNK         0.0685 
     75 H75       -79.6937   30.6164  -71.4974 H         1 UNK         0.0685 
     76 H76       -78.0282   27.4896  -72.4318 H         1 UNK         0.1434 
     77 H77       -74.1742   28.8049  -71.0869 H         1 UNK         0.1329 
     78 H78       -77.4232   31.5870  -71.3700 H         1 UNK         0.1335 
     79 H79       -74.3715   31.1120  -69.6766 H         1 UNK         0.0680 
     80 H80       -75.4159   32.3077  -70.3843 H         1 UNK         0.0680 
     81 H81       -71.5945   31.6913  -70.3813 H         1 UNK         0.1032 
     82 H82       -72.3931   30.1597  -70.5937 H         1 UNK         0.1032 
     83 H83       -70.6475   31.5846  -72.6458 H         1 UNK         0.0461 
     84 H84       -70.1377   28.1624  -72.4772 H         1 UNK         0.3453 
     85 H85       -68.7442   28.2329  -71.4265 H         1 UNK         0.3453 
     86 H86       -72.6183   29.6254  -73.1739 H         1 UNK         0.2984 
     87 H87       -71.7247   29.3764  -76.5582 H         1 UNK         0.0554 
     88 H88       -70.7006   27.2596  -75.6916 H         1 UNK         0.0847 
     89 H89       -72.3147   26.9795  -76.3241 H         1 UNK         0.0847 
     90 H90       -72.0534   27.0480  -74.5855 H         1 UNK         0.0847 
     91 H91       -74.0257   28.4687  -75.1220 H         1 UNK         0.3141 
     92 H92       -75.7450   30.1626  -74.3064 H         1 UNK         0.0743 
     93 H93       -75.7508   32.5632  -74.9190 H         1 UNK         0.0784 
     94 H94       -77.2798   31.8132  -75.3375 H         1 UNK         0.0784 
     95 H95       -76.0961   32.1650  -76.5978 H         1 UNK         0.0784 
     96 H96       -76.7387   29.8128  -77.0197 H         1 UNK         0.3213 
     97 H97       -78.0123   27.0555  -76.5271 H         1 UNK         0.0855 
     98 H98       -76.3434   28.1869  -78.8380 H         1 UNK         0.0814 
     99 H99       -77.9294   28.7377  -78.3001 H         1 UNK         0.0814 
    100 H100      -77.7616   27.1630  -79.0405 H         1 UNK         0.0814 
    101 H101      -76.9384   25.1690  -76.6398 H         1 UNK         0.3105 
    102 H102      -75.2652   23.6213  -78.2057 H         1 UNK         0.0547 
    103 H103      -72.9302   22.9294  -77.6482 H         1 UNK         0.0837 
    104 H104      -72.5998   24.5396  -77.0104 H         1 UNK         0.0837 
    105 H105      -72.9605   24.3229  -78.7146 H         1 UNK         0.0837 
    106 H106      -75.7216   22.7421  -76.2499 H         1 UNK         0.3020 
    107 H107      -74.5368   22.2898  -73.5993 H         1 UNK         0.1245 
    108 H108      -74.4101   24.1564  -72.0895 H         1 UNK         0.0781 
    109 H109      -75.7220   23.1253  -71.6255 H         1 UNK         0.0781 
    110 H110      -74.6443   26.6458  -72.7316 H         1 UNK         0.0836 
    111 H111      -74.9019   26.3289  -71.0304 H         1 UNK         0.0836 
    112 H112      -77.2544   23.0190  -74.5460 H         1 UNK         0.3022 
    113 H113      -77.8702   19.5628  -75.0703 H         1 UNK         0.0747 
    114 H114      -80.0843   19.9849  -74.0324 H         1 UNK         0.0793 
    115 H115      -78.8584   19.8527  -72.7839 H         1 UNK         0.0793 
    116 H116      -79.4693   21.4369  -73.2399 H         1 UNK         0.0793 
    117 H117      -79.5234   21.7112  -75.7351 H         1 UNK         0.3047 
    118 H118      -77.8956   23.3376  -78.2664 H         1 UNK         0.0822 
    119 H119      -79.4138   22.4133  -80.0008 H         1 UNK         0.0807 
    120 H120      -79.7319   20.9932  -79.0027 H         1 UNK         0.0807 
    121 H121      -78.1246   21.2744  -79.6565 H         1 UNK         0.0807 
    122 H122      -80.6891   22.9800  -77.8706 H         1 UNK         0.2946 
    123 H123      -81.8431   24.7283  -76.9273 H         1 UNK         0.1144 
    124 H124      -82.8154   23.9729  -74.7438 H         1 UNK         0.0793 
    125 H125      -81.2068   23.5549  -74.1554 H         1 UNK         0.0793 
    126 H126      -81.9177   22.6713  -75.4997 H         1 UNK         0.0793 
    127 H127      -81.3089   26.0067  -74.4130 H         1 UNK         0.2896 
@<TRIPOS>BOND
     1    1    2 1    
     2    1   67 1    
     3    1   68 1    
     4    1   69 1    
     5    2    3 2    
     6    2    4 am   BACKBONE|DICT|INTERRES
     7    4    5 1    
     8    4   70 1    
     9    5    6 1    
    10    5   65 1    
    11    5   71 1    
    12    6    7 1    
    13    6   72 1    
    14    6   73 1    
    15    7    8 1    
    16    8    9 1    
    17    8   74 1    
    18    8   75 1    
    19    9   10 ar   
    20    9   14 ar   
    21   10   11 ar   
    22   10   76 1    
    23   11   12 ar   
    24   11   48 1    
    25   12   13 ar   
    26   12   77 1    
    27   13   14 ar   
    28   13   15 1    
    29   14   78 1    
    30   15   16 1    
    31   15   79 1    
    32   15   80 1    
    33   16   17 1    
    34   17   18 1    
    35   17   81 1    
    36   17   82 1    
    37   18   19 1    
    38   18   22 1    
    39   18   83 1    
    40   19   20 am   BACKBONE|DICT|INTERRES
    41   19   21 2    
    42   20   84 1    
    43   20   85 1    
    44   22   23 am   BACKBONE|DICT|INTERRES
    45   22   86 1    
    46   23   24 2    
    47   23   25 1    
    48   25   26 1    
    49   25   27 1    
    50   25   87 1    
    51   26   88 1    
    52   26   89 1    
    53   26   90 1    
    54   27   28 am   BACKBONE|DICT|INTERRES
    55   27   91 1    
    56   28   29 2    
    57   28   30 1    
    58   30   31 1    
    59   30   32 1    
    60   30   92 1    
    61   31   93 1    
    62   31   94 1    
    63   31   95 1    
    64   32   33 am   BACKBONE|DICT|INTERRES
    65   32   96 1    
    66   33   34 2    
    67   33   35 1    
    68   35   36 1    
    69   35   37 1    
    70   35   97 1    
    71   36   98 1    
    72   36   99 1    
    73   36  100 1    
    74   37   38 am   BACKBONE|DICT|INTERRES
    75   37  101 1    
    76   38   39 2    
    77   38   40 1    
    78   40   41 1    
    79   40   42 1    
    80   40  102 1    
    81   41  103 1    
    82   41  104 1    
    83   41  105 1    
    84   42   43 am   BACKBONE|DICT|INTERRES
    85   42  106 1    
    86   43   44 2    
    87   43   45 1    
    88   45   46 1    
    89   45   49 1    
    90   45  107 1    
    91   46   47 1    
    92   46  108 1    
    93   46  109 1    
    94   47   48 1    
    95   48  110 1    
    96   48  111 1    
    97   49   50 am   BACKBONE|DICT|INTERRES
    98   49  112 1    
    99   50   51 2    
   100   50   52 1    
   101   52   53 1    
   102   52   54 1    
   103   52  113 1    
   104   53  114 1    
   105   53  115 1    
   106   53  116 1    
   107   54   55 am   BACKBONE|DICT|INTERRES
   108   54  117 1    
   109   55   56 2    
   110   55   57 1    
   111   57   58 1    
   112   57   59 1    
   113   57  118 1    
   114   58  119 1    
   115   58  120 1    
   116   58  121 1    
   117   59   60 am   BACKBONE|DICT|INTERRES
   118   59  122 1    
   119   60   61 2    
   120   60   62 1    
   121   62   63 1    
   122   62   64 1    
   123   62  123 1    
   124   63  124 1    
   125   63  125 1    
   126   63  126 1    
   127   64   65 am   BACKBONE|DICT|INTERRES
   128   64  127 1    
   129   65   66 2    
@<TRIPOS>SUBSTRUCTURE
     1 UNK         1 GROUP             0       ****    0 ROOT    
