@<TRIPOS>MOLECULE
3R135
127   129    1
SMALL
USER_CHARGES


@<TRIPOS>ATOM
      1 CA        -85.5517   26.3564  -74.0179 C.3       0 UNK        -0.1998 
      2 C         -84.5272   27.2893  -74.6457 C.2       0 UNK         0.4909 
      3 O         -84.8353   27.9645  -75.6283 O.2       0 UNK        -0.5240 
      4 N         -83.3123   27.3344  -74.0831 N.am      1 UNK        -0.4739 
      5 CA        -82.1961   28.1662  -74.5571 C.3       1 UNK         0.0864 
      6 C6        -81.0615   28.2592  -73.5062 C.3       11 UNK        -0.0881 
      7 S7        -81.6355   28.9663  -71.9256 S.3       11 UNK        -0.2682 
      8 C8        -80.3925   30.2739  -71.6346 C.3       11 UNK         0.0289 
      9 C9        -78.9962   29.7916  -71.2279 C.ar      11 UNK        -0.0687 
     10 C10       -78.7477   28.5006  -70.7405 C.ar      11 UNK        -0.0823 
     11 C11       -77.4646   28.1233  -70.3316 C.ar      11 UNK        -0.0830 
     12 C12       -76.4213   29.0495  -70.3953 C.ar      11 UNK        -0.1021 
     13 C13       -76.6483   30.3378  -70.8862 C.ar      11 UNK        -0.0753 
     14 C14       -77.9336   30.6983  -71.3029 C.ar      11 UNK        -0.0933 
     15 C15       -75.5151   31.3521  -70.9422 C.3       11 UNK         0.0166 
     16 S16       -74.4809   31.1274  -72.4222 S.3       11 UNK        -0.2615 
     17 C17       -73.3682   29.7813  -71.8863 C.3       11 UNK        -0.0865 
     18 CA        -72.0497   29.7498  -72.7033 C.3       10 UNK         0.0862 
     19 C         -71.0024   28.7699  -72.0948 C.2       10 UNK         0.5551 
     20 N         -70.2936   27.9683  -72.8822 N.am      10 UNK        -0.7319 
     21 O         -70.8139   28.7450  -70.8810 O.2       10 UNK        -0.5018 
     22 N         -72.3198   29.4878  -74.1233 N.am      10 UNK        -0.4509 
     23 C         -71.7454   30.1170  -75.1529 C.2       10 UNK         0.4899 
     24 O         -70.9525   31.0530  -75.0333 O.2       10 UNK        -0.4839 
     25 CA        -72.1148   29.5878  -76.5525 C.3       9 UNK         0.0222 
     26 CB        -71.2180   30.1612  -77.6701 C.3       9 UNK        -0.1966 
     27 N         -72.1482   28.1211  -76.6206 N.am      9 UNK        -0.4218 
     28 C         -71.1487   27.2676  -76.3404 C.2       9 UNK         0.5020 
     29 O         -70.0389   27.6295  -75.9468 O.2       9 UNK        -0.5274 
     30 CA        -71.4171   25.7539  -76.4819 C.3       8 UNK         0.0270 
     31 CB        -71.1638   25.0337  -75.1462 C.3       8 UNK        -0.1976 
     32 N         -72.7682   25.4272  -76.9426 N.am      8 UNK        -0.4313 
     33 C         -73.2251   25.5827  -78.1917 C.2       8 UNK         0.5041 
     34 O         -72.5254   25.9396  -79.1395 O.2       8 UNK        -0.5577 
     35 CA        -74.7328   25.3635  -78.4004 C.3       7 UNK         0.0284 
     36 CB        -75.0363   23.8897  -78.7092 C.3       7 UNK        -0.1958 
     37 N         -75.5265   25.8165  -77.2508 N.am      7 UNK        -0.4454 
     38 C         -75.6700   27.1022  -76.8950 C.2       7 UNK         0.5089 
     39 O         -75.1918   28.0429  -77.5281 O.2       7 UNK        -0.5125 
     40 CA        -76.4236   27.3835  -75.5862 C.3       6 UNK         0.0408 
     41 CB        -77.9391   27.4162  -75.8200 C.3       6 UNK        -0.1791 
     42 N         -76.1024   26.4034  -74.5480 N.am      6 UNK        -0.4762 
     43 C         -74.9377   26.3827  -73.8840 C.2       6 UNK         0.5007 
     44 O         -74.0317   27.1935  -74.0805 O.2       6 UNK        -0.5032 
     45 CA        -74.7161   25.2481  -72.8623 C.3       5 UNK         0.0783 
     46 C46       -75.1599   25.6619  -71.4340 C.3       11 UNK        -0.0857 
     47 S47       -76.9621   25.5263  -71.1450 S.3       11 UNK        -0.2512 
     48 C48       -77.2205   26.7205  -69.7970 C.3       11 UNK         0.0225 
     49 N         -75.3045   23.9669  -73.2632 N.am      5 UNK        -0.4615 
     50 C         -75.0579   23.2892  -74.3900 C.2       4 UNK         0.5053 
     51 O         -74.2642   23.6652  -75.2524 O.2       4 UNK        -0.5105 
     52 CA        -75.8559   21.9878  -74.6139 C.3       4 UNK         0.0263 
     53 CB        -76.6360   21.5090  -73.3675 C.3       4 UNK        -0.1981 
     54 N         -76.7673   22.0663  -75.7642 N.am      4 UNK        -0.4224 
     55 C         -77.6797   23.0188  -76.0126 C.2       3 UNK         0.4895 
     56 O         -77.7993   24.0427  -75.3358 O.2       3 UNK        -0.5091 
     57 CA        -78.5754   22.7876  -77.2484 C.3       3 UNK         0.0250 
     58 CB        -79.3801   21.4732  -77.1394 C.3       3 UNK        -0.1996 
     59 N         -79.4564   23.9286  -77.5463 N.am      3 UNK        -0.4254 
     60 C         -80.4895   24.3797  -76.8181 C.2       2 UNK         0.5004 
     61 O         -80.9416   23.8241  -75.8122 O.2       2 UNK        -0.5226 
     62 CA        -81.1440   25.6759  -77.3111 C.3       2 UNK         0.0269 
     63 CB        -82.2593   25.3806  -78.3283 C.3       2 UNK        -0.1926 
     64 N         -81.7114   26.3656  -76.1570 N.am      2 UNK        -0.4687 
     65 C         -81.6286   27.6773  -75.9070 C.2       1 UNK         0.5165 
     66 O         -81.1227   28.4900  -76.6819 O.2       1 UNK        -0.5079 
     67 H67       -85.8782   25.6140  -74.7456 H         1 UNK         0.0900 
     68 H68       -85.1479   25.8295  -73.1535 H         1 UNK         0.0900 
     69 H69       -86.4243   26.9221  -73.6925 H         1 UNK         0.0900 
     70 H70       -83.1239   26.7815  -73.2589 H         1 UNK         0.2959 
     71 H71       -82.5830   29.1736  -74.7277 H         1 UNK         0.1079 
     72 H72       -80.2444   28.8739  -73.8887 H         1 UNK         0.0837 
     73 H73       -80.6329   27.2749  -73.3067 H         1 UNK         0.0837 
     74 H74       -80.7678   30.9216  -70.8414 H         1 UNK         0.0685 
     75 H75       -80.3240   30.8955  -72.5289 H         1 UNK         0.0685 
     76 H76       -79.5487   27.7796  -70.6637 H         1 UNK         0.1434 
     77 H77       -75.4329   28.7698  -70.0593 H         1 UNK         0.1329 
     78 H78       -78.1119   31.6995  -71.6715 H         1 UNK         0.1335 
     79 H79       -74.9055   31.2899  -70.0396 H         1 UNK         0.0680 
     80 H80       -75.9219   32.3644  -70.9578 H         1 UNK         0.0680 
     81 H81       -73.8953   28.8313  -71.9744 H         1 UNK         0.1032 
     82 H82       -73.1528   29.9172  -70.8251 H         1 UNK         0.1032 
     83 H83       -71.5944   30.7368  -72.6059 H         1 UNK         0.0461 
     84 H84       -70.3879   28.0085  -73.8891 H         1 UNK         0.3453 
     85 H85       -69.6153   27.3504  -72.4669 H         1 UNK         0.3453 
     86 H86       -72.9407   28.7016  -74.3021 H         1 UNK         0.2984 
     87 H87       -73.1350   29.9234  -76.7435 H         1 UNK         0.0554 
     88 H88       -71.2802   31.2496  -77.7024 H         1 UNK         0.0847 
     89 H89       -71.5208   29.7915  -78.6498 H         1 UNK         0.0847 
     90 H90       -70.1698   29.8996  -77.5219 H         1 UNK         0.0847 
     91 H91       -73.0364   27.7283  -76.9058 H         1 UNK         0.3141 
     92 H92       -70.7063   25.3695  -77.2162 H         1 UNK         0.0743 
     93 H93       -70.1310   25.1623  -74.8199 H         1 UNK         0.0784 
     94 H94       -71.8043   25.4225  -74.3549 H         1 UNK         0.0784 
     95 H95       -71.3445   23.9618  -75.2298 H         1 UNK         0.0784 
     96 H96       -73.3995   25.0309  -76.2495 H         1 UNK         0.3213 
     97 H97       -75.0289   25.9566  -79.2686 H         1 UNK         0.0855 
     98 H98       -74.8478   23.2434  -77.8518 H         1 UNK         0.0814 
     99 H99       -74.4150   23.5286  -79.5301 H         1 UNK         0.0814 
    100 H100      -76.0727   23.7605  -79.0162 H         1 UNK         0.0814 
    101 H101      -75.9065   25.1090  -76.6367 H         1 UNK         0.3105 
    102 H102      -76.1208   28.3707  -75.2291 H         1 UNK         0.0547 
    103 H103      -78.4729   27.6186  -74.8928 H         1 UNK         0.0837 
    104 H104      -78.3092   26.4733  -76.2195 H         1 UNK         0.0837 
    105 H105      -78.2085   28.1995  -76.5297 H         1 UNK         0.0837 
    106 H106      -76.7770   25.6627  -74.3846 H         1 UNK         0.3020 
    107 H107      -73.6363   25.0897  -72.8305 H         1 UNK         0.1245 
    108 H108      -74.8210   26.6722  -71.2001 H         1 UNK         0.0781 
    109 H109      -74.6677   25.0158  -70.7055 H         1 UNK         0.0781 
    110 H110      -76.3691   26.7043  -69.1147 H         1 UNK         0.0836 
    111 H111      -78.0822   26.4014  -69.2087 H         1 UNK         0.0836 
    112 H112      -76.0126   23.6080  -72.6390 H         1 UNK         0.3022 
    113 H113      -75.1161   21.2228  -74.8543 H         1 UNK         0.0747 
    114 H114      -77.0960   20.5372  -73.5474 H         1 UNK         0.0793 
    115 H115      -75.9775   21.3909  -72.5057 H         1 UNK         0.0793 
    116 H116      -77.4342   22.1993  -73.0903 H         1 UNK         0.0793 
    117 H117      -76.7055   21.2918  -76.4101 H         1 UNK         0.3047 
    118 H118      -77.9116   22.6938  -78.1076 H         1 UNK         0.0822 
    119 H119      -80.0644   21.3563  -77.9798 H         1 UNK         0.0807 
    120 H120      -79.9678   21.4289  -76.2219 H         1 UNK         0.0807 
    121 H121      -78.7232   20.6030  -77.1409 H         1 UNK         0.0807 
    122 H122      -79.1854   24.4686  -78.3562 H         1 UNK         0.2946 
    123 H123      -80.3786   26.2985  -77.7805 H         1 UNK         0.1144 
    124 H124      -83.0378   24.7480  -77.8997 H         1 UNK         0.0793 
    125 H125      -81.8649   24.8663  -79.2056 H         1 UNK         0.0793 
    126 H126      -82.7304   26.3004  -78.6756 H         1 UNK         0.0793 
    127 H127      -82.0860   25.7537  -75.4431 H         1 UNK         0.2896 
@<TRIPOS>BOND
     1    1    2 1    
     2    1   67 1    
     3    1   68 1    
     4    1   69 1    
     5    2    3 2    
     6    2    4 am   BACKBONE|DICT|INTERRES
     7    4    5 1    
     8    4   70 1    
     9    5    6 1    
    10    5   65 1    
    11    5   71 1    
    12    6    7 1    
    13    6   72 1    
    14    6   73 1    
    15    7    8 1    
    16    8    9 1    
    17    8   74 1    
    18    8   75 1    
    19    9   10 ar   
    20    9   14 ar   
    21   10   11 ar   
    22   10   76 1    
    23   11   12 ar   
    24   11   48 1    
    25   12   13 ar   
    26   12   77 1    
    27   13   14 ar   
    28   13   15 1    
    29   14   78 1    
    30   15   16 1    
    31   15   79 1    
    32   15   80 1    
    33   16   17 1    
    34   17   18 1    
    35   17   81 1    
    36   17   82 1    
    37   18   19 1    
    38   18   22 1    
    39   18   83 1    
    40   19   20 am   BACKBONE|DICT|INTERRES
    41   19   21 2    
    42   20   84 1    
    43   20   85 1    
    44   22   23 am   BACKBONE|DICT|INTERRES
    45   22   86 1    
    46   23   24 2    
    47   23   25 1    
    48   25   26 1    
    49   25   27 1    
    50   25   87 1    
    51   26   88 1    
    52   26   89 1    
    53   26   90 1    
    54   27   28 am   BACKBONE|DICT|INTERRES
    55   27   91 1    
    56   28   29 2    
    57   28   30 1    
    58   30   31 1    
    59   30   32 1    
    60   30   92 1    
    61   31   93 1    
    62   31   94 1    
    63   31   95 1    
    64   32   33 am   BACKBONE|DICT|INTERRES
    65   32   96 1    
    66   33   34 2    
    67   33   35 1    
    68   35   36 1    
    69   35   37 1    
    70   35   97 1    
    71   36   98 1    
    72   36   99 1    
    73   36  100 1    
    74   37   38 am   BACKBONE|DICT|INTERRES
    75   37  101 1    
    76   38   39 2    
    77   38   40 1    
    78   40   41 1    
    79   40   42 1    
    80   40  102 1    
    81   41  103 1    
    82   41  104 1    
    83   41  105 1    
    84   42   43 am   BACKBONE|DICT|INTERRES
    85   42  106 1    
    86   43   44 2    
    87   43   45 1    
    88   45   46 1    
    89   45   49 1    
    90   45  107 1    
    91   46   47 1    
    92   46  108 1    
    93   46  109 1    
    94   47   48 1    
    95   48  110 1    
    96   48  111 1    
    97   49   50 am   BACKBONE|DICT|INTERRES
    98   49  112 1    
    99   50   51 2    
   100   50   52 1    
   101   52   53 1    
   102   52   54 1    
   103   52  113 1    
   104   53  114 1    
   105   53  115 1    
   106   53  116 1    
   107   54   55 am   BACKBONE|DICT|INTERRES
   108   54  117 1    
   109   55   56 2    
   110   55   57 1    
   111   57   58 1    
   112   57   59 1    
   113   57  118 1    
   114   58  119 1    
   115   58  120 1    
   116   58  121 1    
   117   59   60 am   BACKBONE|DICT|INTERRES
   118   59  122 1    
   119   60   61 2    
   120   60   62 1    
   121   62   63 1    
   122   62   64 1    
   123   62  123 1    
   124   63  124 1    
   125   63  125 1    
   126   63  126 1    
   127   64   65 am   BACKBONE|DICT|INTERRES
   128   64  127 1    
   129   65   66 2    
@<TRIPOS>SUBSTRUCTURE
     1 UNK         1 GROUP             0       ****    0 ROOT    
