@<TRIPOS>MOLECULE
3R135
127   129    1
SMALL
USER_CHARGES


@<TRIPOS>ATOM
      1 CA        -79.0490   30.5163  -77.0825 C.3       0 UNK        -0.1998 
      2 C         -78.5649   29.2079  -76.4786 C.2       0 UNK         0.4909 
      3 O         -77.5033   28.7152  -76.8582 O.2       0 UNK        -0.5240 
      4 N         -79.3332   28.6400  -75.5397 N.am      1 UNK        -0.4739 
      5 CA        -79.0182   27.3942  -74.8196 C.3       1 UNK         0.0864 
      6 C6        -79.7585   27.3062  -73.4589 C.3       11 UNK        -0.0881 
      7 S7        -79.5383   28.8021  -72.4265 S.3       11 UNK        -0.2682 
      8 C8        -78.9359   28.1402  -70.8397 C.3       11 UNK         0.0289 
      9 C9        -77.4327   27.9006  -70.8469 C.ar      11 UNK        -0.0687 
     10 C10       -76.9261   26.6171  -71.0648 C.ar      11 UNK        -0.0823 
     11 C11       -75.5473   26.3886  -71.0546 C.ar      11 UNK        -0.0830 
     12 C12       -74.6760   27.4562  -70.8217 C.ar      11 UNK        -0.1021 
     13 C13       -75.1628   28.7480  -70.5973 C.ar      11 UNK        -0.0753 
     14 C14       -76.5489   28.9583  -70.6018 C.ar      11 UNK        -0.0933 
     15 C15       -74.1628   29.8759  -70.3293 C.3       11 UNK         0.0166 
     16 S16       -74.6731   31.5110  -70.9596 S.3       11 UNK        -0.2615 
     17 C17       -73.1232   32.4658  -70.8130 C.3       11 UNK        -0.0865 
     18 CA        -72.8040   33.2720  -72.1070 C.3       10 UNK         0.0862 
     19 C         -71.6939   34.3497  -71.8957 C.2       10 UNK         0.5551 
     20 N         -70.9443   34.7300  -72.9234 N.am      10 UNK        -0.7319 
     21 O         -71.5276   34.8755  -70.7975 O.2       10 UNK        -0.5018 
     22 N         -72.6223   32.4145  -73.2966 N.am      10 UNK        -0.4509 
     23 C         -71.5990   31.5792  -73.5298 C.2       10 UNK         0.4899 
     24 O         -70.6595   31.4035  -72.7519 O.2       10 UNK        -0.4839 
     25 CA        -71.6529   30.8182  -74.8720 C.3       9 UNK         0.0222 
     26 CB        -70.4135   29.9313  -75.1195 C.3       9 UNK        -0.1966 
     27 N         -72.8920   30.0428  -75.0162 N.am      9 UNK        -0.4218 
     28 C         -73.3250   29.0650  -74.2042 C.2       9 UNK         0.5020 
     29 O         -72.6820   28.6077  -73.2592 O.2       9 UNK        -0.5274 
     30 CA        -74.7343   28.5227  -74.4954 C.3       8 UNK         0.0270 
     31 CB        -75.7872   29.5762  -74.1083 C.3       8 UNK        -0.1976 
     32 N         -74.9567   28.1082  -75.8853 N.am      8 UNK        -0.4313 
     33 C         -74.2270   27.2223  -76.5751 C.2       8 UNK         0.5041 
     34 O         -73.2336   26.6413  -76.1358 O.2       8 UNK        -0.5577 
     35 CA        -74.7071   26.8947  -77.9927 C.3       7 UNK         0.0284 
     36 CB        -73.6199   27.1712  -79.0464 C.3       7 UNK        -0.1958 
     37 N         -75.0749   25.4850  -78.0024 N.am      7 UNK        -0.4454 
     38 C         -76.0458   24.9316  -78.7342 C.2       7 UNK         0.5089 
     39 O         -76.6716   25.5318  -79.6076 O.2       7 UNK        -0.5125 
     40 CA        -76.4310   23.4766  -78.4036 C.3       6 UNK         0.0408 
     41 CB        -75.4624   22.4675  -79.0505 C.3       6 UNK        -0.1791 
     42 N         -76.6108   23.2469  -76.9608 N.am      6 UNK        -0.4762 
     43 C         -75.6804   23.2122  -75.9934 C.2       6 UNK         0.5007 
     44 O         -74.4705   23.2567  -76.2131 O.2       6 UNK        -0.5032 
     45 CA        -76.1829   23.1965  -74.5359 C.3       5 UNK         0.0783 
     46 C46       -76.0053   24.5949  -73.8832 C.3       11 UNK        -0.0857 
     47 S47       -74.4252   24.7486  -72.9886 S.3       11 UNK        -0.2512 
     48 C48       -74.9910   24.9884  -71.2751 C.3       11 UNK         0.0225 
     49 N         -77.5784   22.7583  -74.4353 N.am      5 UNK        -0.4615 
     50 C         -77.9721   21.4832  -74.3433 C.2       4 UNK         0.5053 
     51 O         -77.1947   20.5298  -74.3883 O.2       4 UNK        -0.5105 
     52 CA        -79.4699   21.2115  -74.1452 C.3       4 UNK         0.0263 
     53 CB        -79.8052   21.1318  -72.6433 C.3       4 UNK        -0.1981 
     54 N         -80.3427   22.1922  -74.8039 N.am      4 UNK        -0.4224 
     55 C         -81.5864   21.9095  -75.2225 C.2       3 UNK         0.4895 
     56 O         -82.1065   20.7981  -75.1097 O.2       3 UNK        -0.5091 
     57 CA        -82.4154   23.0411  -75.8613 C.3       3 UNK         0.0250 
     58 CB        -83.3912   23.6325  -74.8302 C.3       3 UNK        -0.1996 
     59 N         -81.6219   24.1266  -76.4387 N.am      3 UNK        -0.4254 
     60 C         -80.8057   24.0137  -77.4945 C.2       2 UNK         0.5004 
     61 O         -80.6434   22.9706  -78.1273 O.2       2 UNK        -0.5226 
     62 CA        -80.0198   25.2700  -77.9100 C.3       2 UNK         0.0269 
     63 CB        -80.6605   25.9198  -79.1467 C.3       2 UNK        -0.1926 
     64 N         -79.8513   26.2928  -76.8699 N.am      2 UNK        -0.4687 
     65 C         -79.2673   26.1302  -75.6729 C.2       1 UNK         0.5165 
     66 O         -78.9376   25.0290  -75.2301 O.2       1 UNK        -0.5079 
     67 H67       -78.3134   31.3014  -76.9097 H         1 UNK         0.0900 
     68 H68       -79.1832   30.4054  -78.1581 H         1 UNK         0.0900 
     69 H69       -79.9969   30.8385  -76.6520 H         1 UNK         0.0900 
     70 H70       -80.1820   29.1035  -75.2467 H         1 UNK         0.2959 
     71 H71       -77.9482   27.3810  -74.6096 H         1 UNK         0.1079 
     72 H72       -79.4199   26.4308  -72.9019 H         1 UNK         0.0837 
     73 H73       -80.8298   27.1674  -73.6154 H         1 UNK         0.0837 
     74 H74       -79.4769   27.2263  -70.5894 H         1 UNK         0.0685 
     75 H75       -79.1793   28.8560  -70.0532 H         1 UNK         0.0685 
     76 H76       -77.6077   25.7950  -71.2321 H         1 UNK         0.1434 
     77 H77       -73.6088   27.2789  -70.8219 H         1 UNK         0.1329 
     78 H78       -76.9467   29.9467  -70.4193 H         1 UNK         0.1335 
     79 H79       -73.2023   29.6233  -70.7811 H         1 UNK         0.0680 
     80 H80       -73.9932   29.9482  -69.2544 H         1 UNK         0.0680 
     81 H81       -72.2894   31.8089  -70.5610 H         1 UNK         0.1032 
     82 H82       -73.2454   33.1347  -69.9593 H         1 UNK         0.1032 
     83 H83       -73.6920   33.8656  -72.3277 H         1 UNK         0.0461 
     84 H84       -70.2361   35.4337  -72.7852 H         1 UNK         0.3453 
     85 H85       -71.0773   34.3178  -73.8327 H         1 UNK         0.3453 
     86 H86       -73.3463   32.4910  -73.9958 H         1 UNK         0.2984 
     87 H87       -71.6707   31.5763  -75.6564 H         1 UNK         0.0554 
     88 H88       -70.4694   29.4329  -76.0872 H         1 UNK         0.0847 
     89 H89       -70.3027   29.1623  -74.3544 H         1 UNK         0.0847 
     90 H90       -69.5004   30.5276  -75.1130 H         1 UNK         0.0847 
     91 H91       -73.5059   30.3277  -75.7664 H         1 UNK         0.3141 
     92 H92       -74.8812   27.6462  -73.8620 H         1 UNK         0.0743 
     93 H93       -75.8437   30.3886  -74.8331 H         1 UNK         0.0784 
     94 H94       -76.7785   29.1429  -74.0107 H         1 UNK         0.0784 
     95 H95       -75.5583   30.0217  -73.1440 H         1 UNK         0.0784 
     96 H96       -75.8096   28.4603  -76.3222 H         1 UNK         0.3213 
     97 H97       -75.5839   27.5023  -78.2264 H         1 UNK         0.0855 
     98 H98       -72.7273   26.5689  -78.8730 H         1 UNK         0.0814 
     99 H99       -73.3174   28.2188  -79.0269 H         1 UNK         0.0814 
    100 H100      -73.9796   26.9546  -80.0524 H         1 UNK         0.0814 
    101 H101      -74.6152   24.9086  -77.3009 H         1 UNK         0.3105 
    102 H102      -77.4115   23.2995  -78.8480 H         1 UNK         0.0547 
    103 H103      -75.7480   21.4410  -78.8218 H         1 UNK         0.0837 
    104 H104      -74.4328   22.6111  -78.7229 H         1 UNK         0.0837 
    105 H105      -75.4683   22.5715  -80.1362 H         1 UNK         0.0837 
    106 H106      -77.5717   23.2284  -76.6497 H         1 UNK         0.3020 
    107 H107      -75.5645   22.4731  -73.9986 H         1 UNK         0.1245 
    108 H108      -76.8150   24.7828  -73.1795 H         1 UNK         0.0781 
    109 H109      -76.0780   25.4055  -74.6114 H         1 UNK         0.0781 
    110 H110      -74.1479   24.8240  -70.6025 H         1 UNK         0.0836 
    111 H111      -75.7317   24.2286  -71.0206 H         1 UNK         0.0836 
    112 H112      -78.2587   23.5120  -74.4392 H         1 UNK         0.3022 
    113 H113      -79.6542   20.2296  -74.5882 H         1 UNK         0.0747 
    114 H114      -79.1557   20.4187  -72.1331 H         1 UNK         0.0793 
    115 H115      -79.6817   22.0979  -72.1519 H         1 UNK         0.0793 
    116 H116      -80.8318   20.8026  -72.4812 H         1 UNK         0.0793 
    117 H117      -79.9811   23.1258  -74.9529 H         1 UNK         0.3047 
    118 H118      -83.0003   22.5945  -76.6685 H         1 UNK         0.0822 
    119 H119      -84.0526   24.3701  -75.2853 H         1 UNK         0.0807 
    120 H120      -82.8643   24.1146  -74.0056 H         1 UNK         0.0807 
    121 H121      -84.0248   22.8549  -74.4009 H         1 UNK         0.0807 
    122 H122      -81.6877   25.0284  -75.9899 H         1 UNK         0.2946 
    123 H123      -79.0216   24.9335  -78.1883 H         1 UNK         0.1144 
    124 H124      -80.0425   26.7311  -79.5324 H         1 UNK         0.0793 
    125 H125      -81.6490   26.3233  -78.9243 H         1 UNK         0.0793 
    126 H126      -80.7771   25.1954  -79.9543 H         1 UNK         0.0793 
    127 H127      -80.0985   27.2367  -77.1297 H         1 UNK         0.2896 
@<TRIPOS>BOND
     1    1    2 1    
     2    1   67 1    
     3    1   68 1    
     4    1   69 1    
     5    2    3 2    
     6    2    4 am   BACKBONE|DICT|INTERRES
     7    4    5 1    
     8    4   70 1    
     9    5    6 1    
    10    5   65 1    
    11    5   71 1    
    12    6    7 1    
    13    6   72 1    
    14    6   73 1    
    15    7    8 1    
    16    8    9 1    
    17    8   74 1    
    18    8   75 1    
    19    9   10 ar   
    20    9   14 ar   
    21   10   11 ar   
    22   10   76 1    
    23   11   12 ar   
    24   11   48 1    
    25   12   13 ar   
    26   12   77 1    
    27   13   14 ar   
    28   13   15 1    
    29   14   78 1    
    30   15   16 1    
    31   15   79 1    
    32   15   80 1    
    33   16   17 1    
    34   17   18 1    
    35   17   81 1    
    36   17   82 1    
    37   18   19 1    
    38   18   22 1    
    39   18   83 1    
    40   19   20 am   BACKBONE|DICT|INTERRES
    41   19   21 2    
    42   20   84 1    
    43   20   85 1    
    44   22   23 am   BACKBONE|DICT|INTERRES
    45   22   86 1    
    46   23   24 2    
    47   23   25 1    
    48   25   26 1    
    49   25   27 1    
    50   25   87 1    
    51   26   88 1    
    52   26   89 1    
    53   26   90 1    
    54   27   28 am   BACKBONE|DICT|INTERRES
    55   27   91 1    
    56   28   29 2    
    57   28   30 1    
    58   30   31 1    
    59   30   32 1    
    60   30   92 1    
    61   31   93 1    
    62   31   94 1    
    63   31   95 1    
    64   32   33 am   BACKBONE|DICT|INTERRES
    65   32   96 1    
    66   33   34 2    
    67   33   35 1    
    68   35   36 1    
    69   35   37 1    
    70   35   97 1    
    71   36   98 1    
    72   36   99 1    
    73   36  100 1    
    74   37   38 am   BACKBONE|DICT|INTERRES
    75   37  101 1    
    76   38   39 2    
    77   38   40 1    
    78   40   41 1    
    79   40   42 1    
    80   40  102 1    
    81   41  103 1    
    82   41  104 1    
    83   41  105 1    
    84   42   43 am   BACKBONE|DICT|INTERRES
    85   42  106 1    
    86   43   44 2    
    87   43   45 1    
    88   45   46 1    
    89   45   49 1    
    90   45  107 1    
    91   46   47 1    
    92   46  108 1    
    93   46  109 1    
    94   47   48 1    
    95   48  110 1    
    96   48  111 1    
    97   49   50 am   BACKBONE|DICT|INTERRES
    98   49  112 1    
    99   50   51 2    
   100   50   52 1    
   101   52   53 1    
   102   52   54 1    
   103   52  113 1    
   104   53  114 1    
   105   53  115 1    
   106   53  116 1    
   107   54   55 am   BACKBONE|DICT|INTERRES
   108   54  117 1    
   109   55   56 2    
   110   55   57 1    
   111   57   58 1    
   112   57   59 1    
   113   57  118 1    
   114   58  119 1    
   115   58  120 1    
   116   58  121 1    
   117   59   60 am   BACKBONE|DICT|INTERRES
   118   59  122 1    
   119   60   61 2    
   120   60   62 1    
   121   62   63 1    
   122   62   64 1    
   123   62  123 1    
   124   63  124 1    
   125   63  125 1    
   126   63  126 1    
   127   64   65 am   BACKBONE|DICT|INTERRES
   128   64  127 1    
   129   65   66 2    
@<TRIPOS>SUBSTRUCTURE
     1 UNK         1 GROUP             0       ****    0 ROOT    
