@<TRIPOS>MOLECULE
3R135
127   129    1
SMALL
USER_CHARGES


@<TRIPOS>ATOM
      1 CA        -79.7668   24.9033  -69.1735 C.3       0 UNK        -0.1998 
      2 C         -80.8234   25.2656  -70.2064 C.2       0 UNK         0.4909 
      3 O         -82.0072   25.0026  -69.9936 O.2       0 UNK        -0.5240 
      4 N         -80.3991   25.8602  -71.3241 N.am      1 UNK        -0.4739 
      5 CA        -81.2195   26.2130  -72.4792 C.3       1 UNK         0.0864 
      6 C6        -82.2120   27.3947  -72.2383 C.3       11 UNK        -0.0881 
      7 S7        -81.6372   29.1325  -72.3210 S.3       11 UNK        -0.2682 
      8 C8        -80.2308   29.2307  -71.1643 C.3       11 UNK         0.0289 
      9 C9        -78.8948   29.0387  -71.8718 C.ar      11 UNK        -0.0687 
     10 C10       -77.9892   28.0741  -71.4256 C.ar      11 UNK        -0.0823 
     11 C11       -76.7874   27.8610  -72.1048 C.ar      11 UNK        -0.0830 
     12 C12       -76.4820   28.6402  -73.2253 C.ar      11 UNK        -0.1021 
     13 C13       -77.3504   29.6537  -73.6523 C.ar      11 UNK        -0.0753 
     14 C14       -78.5559   29.8377  -72.9691 C.ar      11 UNK        -0.0933 
     15 C15       -77.0556   30.5496  -74.8590 C.3       11 UNK         0.0166 
     16 S16       -75.2949   30.7714  -75.2872 S.3       11 UNK        -0.2615 
     17 C17       -74.6255   31.5054  -73.7609 C.3       11 UNK        -0.0865 
     18 CA        -73.1454   31.9453  -73.9074 C.3       10 UNK         0.0862 
     19 C         -72.7103   32.7659  -72.6557 C.2       10 UNK         0.5551 
     20 N         -71.8180   32.2670  -71.8083 N.am      10 UNK        -0.7319 
     21 O         -73.1924   33.8779  -72.4542 O.2       10 UNK        -0.5018 
     22 N         -72.2507   30.8186  -74.2511 N.am      10 UNK        -0.4509 
     23 C         -70.9959   30.9811  -74.7031 C.2       10 UNK         0.4899 
     24 O         -70.5126   32.0819  -74.9707 O.2       10 UNK        -0.4839 
     25 CA        -70.1024   29.7412  -74.8693 C.3       9 UNK         0.0222 
     26 CB        -69.2122   29.5564  -73.6244 C.3       9 UNK        -0.1966 
     27 N         -70.8549   28.5177  -75.1447 N.am      9 UNK        -0.4218 
     28 C         -70.3594   27.3939  -75.6736 C.2       9 UNK         0.5020 
     29 O         -69.1809   27.2540  -76.0048 O.2       9 UNK        -0.5274 
     30 CA        -71.3357   26.2180  -75.8731 C.3       8 UNK         0.0270 
     31 CB        -71.5961   25.4871  -74.5405 C.3       8 UNK        -0.1976 
     32 N         -72.5949   26.5683  -76.5469 N.am      8 UNK        -0.4313 
     33 C         -73.5680   27.3922  -76.1402 C.2       8 UNK         0.5041 
     34 O         -73.5301   28.0006  -75.0701 O.2       8 UNK        -0.5577 
     35 CA        -74.7724   27.5861  -77.0817 C.3       7 UNK         0.0284 
     36 CB        -74.4039   28.4691  -78.2885 C.3       7 UNK        -0.1958 
     37 N         -75.4177   26.3359  -77.4983 N.am      7 UNK        -0.4454 
     38 C         -74.9193   25.3093  -78.2028 C.2       7 UNK         0.5089 
     39 O         -73.8175   25.3157  -78.7563 O.2       7 UNK        -0.5125 
     40 CA        -75.7886   24.0364  -78.1923 C.3       6 UNK         0.0408 
     41 CB        -75.0979   22.8114  -78.8264 C.3       6 UNK        -0.1791 
     42 N         -76.2520   23.7539  -76.8263 N.am      6 UNK        -0.4762 
     43 C         -75.4875   23.5068  -75.7483 C.2       6 UNK         0.5007 
     44 O         -74.2845   23.2523  -75.7996 O.2       6 UNK        -0.5032 
     45 CA        -76.1666   23.6178  -74.3689 C.3       5 UNK         0.0783 
     46 C46       -75.8927   25.0183  -73.7660 C.3       11 UNK        -0.0857 
     47 S47       -76.3772   25.1193  -72.0136 S.3       11 UNK        -0.2512 
     48 C48       -75.8151   26.8018  -71.6063 C.3       11 UNK         0.0225 
     49 N         -77.6018   23.3324  -74.4370 N.am      5 UNK        -0.4615 
     50 C         -78.1306   22.1181  -74.6314 C.2       4 UNK         0.5053 
     51 O         -77.4691   21.0820  -74.6987 O.2       4 UNK        -0.5105 
     52 CA        -79.6541   22.0598  -74.8158 C.3       4 UNK         0.0263 
     53 CB        -80.3772   22.1403  -73.4603 C.3       4 UNK        -0.1981 
     54 N         -80.1288   23.1261  -75.7022 N.am      4 UNK        -0.4224 
     55 C         -79.9710   23.1319  -77.0344 C.2       3 UNK         0.4895 
     56 O         -79.4498   22.2123  -77.6650 O.2       3 UNK        -0.5091 
     57 CA        -80.4756   24.3670  -77.8019 C.3       3 UNK         0.0250 
     58 CB        -81.8939   24.1202  -78.3410 C.3       3 UNK        -0.1996 
     59 N         -80.4714   25.5913  -76.9980 N.am      3 UNK        -0.4254 
     60 C         -79.3696   26.2807  -76.6731 C.2       2 UNK         0.5004 
     61 O         -78.2308   25.9722  -77.0252 O.2       2 UNK        -0.5226 
     62 CA        -79.5711   27.4878  -75.7450 C.3       2 UNK         0.0269 
     63 CB        -80.0530   28.7151  -76.5333 C.3       2 UNK        -0.1926 
     64 N         -80.4835   27.2277  -74.6242 N.am      2 UNK        -0.4687 
     65 C         -80.2769   26.2859  -73.6949 C.2       1 UNK         0.5165 
     66 O         -79.3649   25.4604  -73.7753 O.2       1 UNK        -0.5079 
     67 H67       -79.9176   25.4829  -68.2633 H         1 UNK         0.0900 
     68 H68       -79.8368   23.8457  -68.9206 H         1 UNK         0.0900 
     69 H69       -78.7575   25.0956  -69.5377 H         1 UNK         0.0900 
     70 H70       -79.4070   25.9666  -71.4956 H         1 UNK         0.2959 
     71 H71       -81.8369   25.3347  -72.6812 H         1 UNK         0.1079 
     72 H72       -82.7098   27.2651  -71.2766 H         1 UNK         0.0837 
     73 H73       -83.0175   27.3132  -72.9700 H         1 UNK         0.0837 
     74 H74       -80.3675   28.5114  -70.3558 H         1 UNK         0.0685 
     75 H75       -80.2334   30.2174  -70.6996 H         1 UNK         0.0685 
     76 H76       -78.2200   27.4791  -70.5534 H         1 UNK         0.1434 
     77 H77       -75.5562   28.4656  -73.7504 H         1 UNK         0.1329 
     78 H78       -79.2478   30.5989  -73.3029 H         1 UNK         0.1335 
     79 H79       -77.5617   30.1308  -75.7288 H         1 UNK         0.0680 
     80 H80       -77.4881   31.5384  -74.6981 H         1 UNK         0.0680 
     81 H81       -74.7262   30.7916  -72.9421 H         1 UNK         0.1032 
     82 H82       -75.2568   32.3578  -73.5012 H         1 UNK         0.1032 
     83 H83       -73.1044   32.6457  -74.7442 H         1 UNK         0.0461 
     84 H84       -71.5429   32.8091  -71.0045 H         1 UNK         0.3453 
     85 H85       -71.4201   31.3555  -71.9639 H         1 UNK         0.3453 
     86 H86       -72.6230   29.8951  -74.0798 H         1 UNK         0.2984 
     87 H87       -69.4572   29.9369  -75.7284 H         1 UNK         0.0554 
     88 H88       -68.6745   30.4751  -73.3855 H         1 UNK         0.0847 
     89 H89       -68.4627   28.7803  -73.7793 H         1 UNK         0.0847 
     90 H90       -69.7996   29.2827  -72.7475 H         1 UNK         0.0847 
     91 H91       -71.8609   28.5223  -74.9737 H         1 UNK         0.3141 
     92 H92       -70.8394   25.5102  -76.5390 H         1 UNK         0.0743 
     93 H93       -70.6591   25.1664  -74.0835 H         1 UNK         0.0784 
     94 H94       -72.2033   24.5951  -74.6918 H         1 UNK         0.0784 
     95 H95       -72.1088   26.1208  -73.8163 H         1 UNK         0.0784 
     96 H96       -72.7533   26.1107  -77.4432 H         1 UNK         0.3213 
     97 H97       -75.5318   28.1170  -76.5065 H         1 UNK         0.0855 
     98 H98       -73.6567   28.0012  -78.9298 H         1 UNK         0.0814 
     99 H99       -73.9946   29.4244  -77.9569 H         1 UNK         0.0814 
    100 H100      -75.2801   28.6875  -78.8986 H         1 UNK         0.0814 
    101 H101      -76.3636   26.2056  -77.1433 H         1 UNK         0.3105 
    102 H102      -76.6790   24.2590  -78.7823 H         1 UNK         0.0547 
    103 H103      -75.7380   21.9304  -78.7831 H         1 UNK         0.0837 
    104 H104      -74.1572   22.5683  -78.3319 H         1 UNK         0.0837 
    105 H105      -74.8702   22.9970  -79.8765 H         1 UNK         0.0837 
    106 H106      -77.2223   23.9854  -76.6538 H         1 UNK         0.3020 
    107 H107      -75.6998   22.8666  -73.7275 H         1 UNK         0.1245 
    108 H108      -76.4257   25.7909  -74.3247 H         1 UNK         0.0781 
    109 H109      -74.8311   25.2679  -73.8304 H         1 UNK         0.0781 
    110 H110      -74.8158   26.9672  -72.0131 H         1 UNK         0.0836 
    111 H111      -75.7176   26.8861  -70.5230 H         1 UNK         0.0836 
    112 H112      -78.2243   24.1281  -74.3063 H         1 UNK         0.3022 
    113 H113      -79.9004   21.0985  -75.2723 H         1 UNK         0.0747 
    114 H114      -81.4584   22.0754  -73.5821 H         1 UNK         0.0793 
    115 H115      -80.0752   21.3164  -72.8124 H         1 UNK         0.0793 
    116 H116      -80.1536   23.0654  -72.9286 H         1 UNK         0.0793 
    117 H117      -80.5173   23.9457  -75.2601 H         1 UNK         0.3047 
    118 H118      -79.8088   24.5160  -78.6544 H         1 UNK         0.0822 
    119 H119      -82.2368   24.9550  -78.9527 H         1 UNK         0.0807 
    120 H120      -82.6146   23.9746  -77.5353 H         1 UNK         0.0807 
    121 H121      -81.9227   23.2283  -78.9688 H         1 UNK         0.0807 
    122 H122      -81.3621   25.9228  -76.6562 H         1 UNK         0.2946 
    123 H123      -78.5937   27.7185  -75.3163 H         1 UNK         0.1144 
    124 H124      -80.0984   29.5998  -75.8978 H         1 UNK         0.0793 
    125 H125      -81.0439   28.5592  -76.9614 H         1 UNK         0.0793 
    126 H126      -79.3730   28.9423  -77.3557 H         1 UNK         0.0793 
    127 H127      -81.2227   27.8992  -74.4667 H         1 UNK         0.2896 
@<TRIPOS>BOND
     1    1    2 1    
     2    1   67 1    
     3    1   68 1    
     4    1   69 1    
     5    2    3 2    
     6    2    4 am   BACKBONE|DICT|INTERRES
     7    4    5 1    
     8    4   70 1    
     9    5    6 1    
    10    5   65 1    
    11    5   71 1    
    12    6    7 1    
    13    6   72 1    
    14    6   73 1    
    15    7    8 1    
    16    8    9 1    
    17    8   74 1    
    18    8   75 1    
    19    9   10 ar   
    20    9   14 ar   
    21   10   11 ar   
    22   10   76 1    
    23   11   12 ar   
    24   11   48 1    
    25   12   13 ar   
    26   12   77 1    
    27   13   14 ar   
    28   13   15 1    
    29   14   78 1    
    30   15   16 1    
    31   15   79 1    
    32   15   80 1    
    33   16   17 1    
    34   17   18 1    
    35   17   81 1    
    36   17   82 1    
    37   18   19 1    
    38   18   22 1    
    39   18   83 1    
    40   19   20 am   BACKBONE|DICT|INTERRES
    41   19   21 2    
    42   20   84 1    
    43   20   85 1    
    44   22   23 am   BACKBONE|DICT|INTERRES
    45   22   86 1    
    46   23   24 2    
    47   23   25 1    
    48   25   26 1    
    49   25   27 1    
    50   25   87 1    
    51   26   88 1    
    52   26   89 1    
    53   26   90 1    
    54   27   28 am   BACKBONE|DICT|INTERRES
    55   27   91 1    
    56   28   29 2    
    57   28   30 1    
    58   30   31 1    
    59   30   32 1    
    60   30   92 1    
    61   31   93 1    
    62   31   94 1    
    63   31   95 1    
    64   32   33 am   BACKBONE|DICT|INTERRES
    65   32   96 1    
    66   33   34 2    
    67   33   35 1    
    68   35   36 1    
    69   35   37 1    
    70   35   97 1    
    71   36   98 1    
    72   36   99 1    
    73   36  100 1    
    74   37   38 am   BACKBONE|DICT|INTERRES
    75   37  101 1    
    76   38   39 2    
    77   38   40 1    
    78   40   41 1    
    79   40   42 1    
    80   40  102 1    
    81   41  103 1    
    82   41  104 1    
    83   41  105 1    
    84   42   43 am   BACKBONE|DICT|INTERRES
    85   42  106 1    
    86   43   44 2    
    87   43   45 1    
    88   45   46 1    
    89   45   49 1    
    90   45  107 1    
    91   46   47 1    
    92   46  108 1    
    93   46  109 1    
    94   47   48 1    
    95   48  110 1    
    96   48  111 1    
    97   49   50 am   BACKBONE|DICT|INTERRES
    98   49  112 1    
    99   50   51 2    
   100   50   52 1    
   101   52   53 1    
   102   52   54 1    
   103   52  113 1    
   104   53  114 1    
   105   53  115 1    
   106   53  116 1    
   107   54   55 am   BACKBONE|DICT|INTERRES
   108   54  117 1    
   109   55   56 2    
   110   55   57 1    
   111   57   58 1    
   112   57   59 1    
   113   57  118 1    
   114   58  119 1    
   115   58  120 1    
   116   58  121 1    
   117   59   60 am   BACKBONE|DICT|INTERRES
   118   59  122 1    
   119   60   61 2    
   120   60   62 1    
   121   62   63 1    
   122   62   64 1    
   123   62  123 1    
   124   63  124 1    
   125   63  125 1    
   126   63  126 1    
   127   64   65 am   BACKBONE|DICT|INTERRES
   128   64  127 1    
   129   65   66 2    
@<TRIPOS>SUBSTRUCTURE
     1 UNK         1 GROUP             0       ****    0 ROOT    
