@<TRIPOS>MOLECULE
3R135
127   129    1
SMALL
USER_CHARGES


@<TRIPOS>ATOM
      1 CA        -81.8280   24.7189  -68.5163 C.3       0 UNK        -0.1998 
      2 C         -82.3553   25.4798  -69.7238 C.2       0 UNK         0.4909 
      3 O         -83.5665   25.5117  -69.9463 O.2       0 UNK        -0.5240 
      4 N         -81.4549   26.0993  -70.4978 N.am      1 UNK        -0.4739 
      5 CA        -81.7693   26.8044  -71.7458 C.3       1 UNK         0.0864 
      6 C6        -80.6680   27.8397  -72.0986 C.3       11 UNK        -0.0881 
      7 S7        -81.3610   29.2919  -72.9557 S.3       11 UNK        -0.2682 
      8 C8        -80.1125   30.5606  -72.5750 C.3       11 UNK         0.0289 
      9 C9        -78.7833   30.2904  -73.2674 C.ar      11 UNK        -0.0687 
     10 C10       -78.7189   30.2320  -74.6619 C.ar      11 UNK        -0.0823 
     11 C11       -77.4997   30.0214  -75.3117 C.ar      11 UNK        -0.0830 
     12 C12       -76.3312   29.8825  -74.5553 C.ar      11 UNK        -0.1021 
     13 C13       -76.3825   29.9433  -73.1590 C.ar      11 UNK        -0.0753 
     14 C14       -77.6117   30.1387  -72.5207 C.ar      11 UNK        -0.0933 
     15 C15       -75.1086   29.8594  -72.3342 C.3       11 UNK         0.0166 
     16 S16       -74.8232   28.1945  -71.6549 S.3       11 UNK        -0.2615 
     17 C17       -73.9654   27.3283  -73.0154 C.3       11 UNK        -0.0865 
     18 CA        -72.4222   27.4848  -72.9229 C.3       10 UNK         0.0862 
     19 C         -71.6623   26.3704  -73.7020 C.2       10 UNK         0.5551 
     20 N         -70.7230   26.6842  -74.5871 N.am      10 UNK        -0.7319 
     21 O         -71.9119   25.1893  -73.4782 O.2       10 UNK        -0.5018 
     22 N         -72.0195   28.8426  -73.3075 N.am      10 UNK        -0.4509 
     23 C         -71.0122   29.5485  -72.7809 C.2       10 UNK         0.4899 
     24 O         -70.3230   29.1603  -71.8368 O.2       10 UNK        -0.4839 
     25 CA        -70.7392   30.9308  -73.4181 C.3       9 UNK         0.0222 
     26 CB        -69.2589   31.3536  -73.3026 C.3       9 UNK        -0.1966 
     27 N         -71.2130   31.0439  -74.8082 N.am      9 UNK        -0.4218 
     28 C         -70.8221   30.2917  -75.8473 C.2       9 UNK         0.5020 
     29 O         -69.9312   29.4394  -75.7873 O.2       9 UNK        -0.5274 
     30 CA        -71.5853   30.5047  -77.1673 C.3       8 UNK         0.0270 
     31 CB        -70.8632   31.5366  -78.0485 C.3       8 UNK        -0.1976 
     32 N         -71.7254   29.2481  -77.9081 N.am      8 UNK        -0.4313 
     33 C         -72.3891   28.1735  -77.4618 C.2       8 UNK         0.5041 
     34 O         -73.0884   28.1719  -76.4410 O.2       8 UNK        -0.5577 
     35 CA        -72.2118   26.8796  -78.2718 C.3       7 UNK         0.0284 
     36 CB        -70.7248   26.4700  -78.3662 C.3       7 UNK        -0.1958 
     37 N         -72.9909   25.8415  -77.6086 N.am      7 UNK        -0.4454 
     38 C         -73.2676   24.6113  -78.0537 C.2       7 UNK         0.5089 
     39 O         -72.8645   24.1550  -79.1242 O.2       7 UNK        -0.5125 
     40 CA        -74.1656   23.7448  -77.1515 C.3       6 UNK         0.0408 
     41 CB        -73.3140   22.9083  -76.1845 C.3       6 UNK        -0.1791 
     42 N         -75.1253   24.5446  -76.3858 N.am      6 UNK        -0.4762 
     43 C         -76.1789   25.1771  -76.9193 C.2       6 UNK         0.5007 
     44 O         -76.5182   25.0448  -78.0971 O.2       6 UNK        -0.5032 
     45 CA        -76.9926   26.0855  -75.9681 C.3       5 UNK         0.0783 
     46 C46       -77.8411   27.1403  -76.7248 C.3       11 UNK        -0.0857 
     47 S47       -76.7760   28.4192  -77.4861 S.3       11 UNK        -0.2512 
     48 C48       -77.4562   29.9763  -76.8331 C.3       11 UNK         0.0225 
     49 N         -77.8099   25.2657  -75.0706 N.am      5 UNK        -0.4615 
     50 C         -77.3263   24.5600  -74.0354 C.2       4 UNK         0.5053 
     51 O         -76.1541   24.6285  -73.6650 O.2       4 UNK        -0.5105 
     52 CA        -78.2762   23.5999  -73.2933 C.3       4 UNK         0.0263 
     53 CB        -78.6690   24.1871  -71.9292 C.3       4 UNK        -0.1981 
     54 N         -79.4819   23.2607  -74.0551 N.am      4 UNK        -0.4224 
     55 C         -79.4838   22.5304  -75.1824 C.2       3 UNK         0.4895 
     56 O         -78.4816   21.9709  -75.6286 O.2       3 UNK        -0.5091 
     57 CA        -80.8039   22.4168  -75.9708 C.3       3 UNK         0.0250 
     58 CB        -81.4292   21.0263  -75.7724 C.3       3 UNK        -0.1996 
     59 N         -81.8048   23.4386  -75.6488 N.am      3 UNK        -0.4254 
     60 C         -81.6554   24.7644  -75.7836 C.2       2 UNK         0.5004 
     61 O         -80.6320   25.2986  -76.2139 O.2       2 UNK        -0.5226 
     62 CA        -82.8191   25.6504  -75.2961 C.3       2 UNK         0.0269 
     63 CB        -84.1600   24.8969  -75.1399 C.3       2 UNK        -0.1926 
     64 N         -82.4909   26.3528  -74.0480 N.am      2 UNK        -0.4687 
     65 C         -82.0306   25.8165  -72.9071 C.2       1 UNK         0.5165 
     66 O         -81.7918   24.6130  -72.7658 O.2       1 UNK        -0.5079 
     67 H67       -80.7428   24.7802  -68.4371 H         1 UNK         0.0900 
     68 H68       -82.1030   23.6669  -68.5881 H         1 UNK         0.0900 
     69 H69       -82.2585   25.1227  -67.6004 H         1 UNK         0.0900 
     70 H70       -80.4744   26.0174  -70.2729 H         1 UNK         0.2959 
     71 H71       -82.7067   27.3393  -71.5736 H         1 UNK         0.1079 
     72 H72       -80.1879   28.2003  -71.1872 H         1 UNK         0.0837 
     73 H73       -79.8683   27.4065  -72.7036 H         1 UNK         0.0837 
     74 H74       -80.4880   31.5305  -72.9039 H         1 UNK         0.0685 
     75 H75       -79.9875   30.6321  -71.4934 H         1 UNK         0.0685 
     76 H76       -79.6252   30.3549  -75.2393 H         1 UNK         0.1434 
     77 H77       -75.3840   29.7354  -75.0573 H         1 UNK         0.1329 
     78 H78       -77.6491   30.1942  -71.4413 H         1 UNK         0.1335 
     79 H79       -75.1770   30.5597  -71.5004 H         1 UNK         0.0680 
     80 H80       -74.2532   30.1883  -72.9225 H         1 UNK         0.0680 
     81 H81       -74.3423   27.6659  -73.9819 H         1 UNK         0.1032 
     82 H82       -74.2493   26.2780  -72.9344 H         1 UNK         0.1032 
     83 H83       -72.1411   27.3280  -71.8798 H         1 UNK         0.0461 
     84 H84       -70.2298   25.9437  -75.0570 H         1 UNK         0.3453 
     85 H85       -70.5083   27.6505  -74.8008 H         1 UNK         0.3453 
     86 H86       -72.4848   29.2101  -74.1247 H         1 UNK         0.2984 
     87 H87       -71.3289   31.6446  -72.8411 H         1 UNK         0.0554 
     88 H88       -69.0893   32.3335  -73.7485 H         1 UNK         0.0847 
     89 H89       -68.5941   30.6420  -73.7932 H         1 UNK         0.0847 
     90 H90       -68.9496   31.4175  -72.2587 H         1 UNK         0.0847 
     91 H91       -71.9475   31.7221  -74.9617 H         1 UNK         0.3141 
     92 H92       -72.5888   30.8725  -76.9422 H         1 UNK         0.0743 
     93 H93       -69.8559   31.2092  -78.3101 H         1 UNK         0.0784 
     94 H94       -71.4086   31.7203  -78.9745 H         1 UNK         0.0784 
     95 H95       -70.7703   32.4940  -77.5339 H         1 UNK         0.0784 
     96 H96       -71.1571   29.1529  -78.7366 H         1 UNK         0.3213 
     97 H97       -72.6202   27.0393  -79.2715 H         1 UNK         0.0855 
     98 H98       -70.2848   26.3287  -77.3791 H         1 UNK         0.0814 
     99 H99       -70.1319   27.2269  -78.8799 H         1 UNK         0.0814 
    100 H100      -70.5939   25.5427  -78.9232 H         1 UNK         0.0814 
    101 H101      -73.3965   26.1594  -76.7356 H         1 UNK         0.3105 
    102 H102      -74.7242   23.0596  -77.7926 H         1 UNK         0.0547 
    103 H103      -72.6109   22.2781  -76.7307 H         1 UNK         0.0837 
    104 H104      -72.7312   23.5374  -75.5109 H         1 UNK         0.0837 
    105 H105      -73.9343   22.2497  -75.5764 H         1 UNK         0.0837 
    106 H106      -74.9816   24.6173  -75.3838 H         1 UNK         0.3020 
    107 H107      -76.2785   26.6350  -75.3494 H         1 UNK         0.1245 
    108 H108      -78.5406   27.6143  -76.0354 H         1 UNK         0.0781 
    109 H109      -78.4618   26.6796  -77.4956 H         1 UNK         0.0781 
    110 H110      -78.4507   30.1237  -77.2572 H         1 UNK         0.0836 
    111 H111      -76.8448   30.8046  -77.1936 H         1 UNK         0.0836 
    112 H112      -78.7808   25.1476  -75.3425 H         1 UNK         0.3022 
    113 H113      -77.7261   22.6735  -73.1156 H         1 UNK         0.0747 
    114 H114      -79.3552   23.5318  -71.3922 H         1 UNK         0.0793 
    115 H115      -77.7896   24.3258  -71.2988 H         1 UNK         0.0793 
    116 H116      -79.1444   25.1604  -72.0377 H         1 UNK         0.0793 
    117 H117      -80.3549   23.6710  -73.7334 H         1 UNK         0.3047 
    118 H118      -80.5520   22.5323  -77.0270 H         1 UNK         0.0822 
    119 H119      -82.3092   20.8919  -76.4018 H         1 UNK         0.0807 
    120 H120      -81.7273   20.8628  -74.7359 H         1 UNK         0.0807 
    121 H121      -80.7226   20.2379  -76.0362 H         1 UNK         0.0807 
    122 H122      -82.6664   23.1062  -75.2404 H         1 UNK         0.2946 
    123 H123      -82.9550   26.4140  -76.0641 H         1 UNK         0.1144 
    124 H124      -84.4312   24.3755  -76.0591 H         1 UNK         0.0793 
    125 H125      -84.1340   24.1636  -74.3328 H         1 UNK         0.0793 
    126 H126      -84.9708   25.5916  -74.9201 H         1 UNK         0.0793 
    127 H127      -82.5834   27.3601  -74.0806 H         1 UNK         0.2896 
@<TRIPOS>BOND
     1    1    2 1    
     2    1   67 1    
     3    1   68 1    
     4    1   69 1    
     5    2    3 2    
     6    2    4 am   BACKBONE|DICT|INTERRES
     7    4    5 1    
     8    4   70 1    
     9    5    6 1    
    10    5   65 1    
    11    5   71 1    
    12    6    7 1    
    13    6   72 1    
    14    6   73 1    
    15    7    8 1    
    16    8    9 1    
    17    8   74 1    
    18    8   75 1    
    19    9   10 ar   
    20    9   14 ar   
    21   10   11 ar   
    22   10   76 1    
    23   11   12 ar   
    24   11   48 1    
    25   12   13 ar   
    26   12   77 1    
    27   13   14 ar   
    28   13   15 1    
    29   14   78 1    
    30   15   16 1    
    31   15   79 1    
    32   15   80 1    
    33   16   17 1    
    34   17   18 1    
    35   17   81 1    
    36   17   82 1    
    37   18   19 1    
    38   18   22 1    
    39   18   83 1    
    40   19   20 am   BACKBONE|DICT|INTERRES
    41   19   21 2    
    42   20   84 1    
    43   20   85 1    
    44   22   23 am   BACKBONE|DICT|INTERRES
    45   22   86 1    
    46   23   24 2    
    47   23   25 1    
    48   25   26 1    
    49   25   27 1    
    50   25   87 1    
    51   26   88 1    
    52   26   89 1    
    53   26   90 1    
    54   27   28 am   BACKBONE|DICT|INTERRES
    55   27   91 1    
    56   28   29 2    
    57   28   30 1    
    58   30   31 1    
    59   30   32 1    
    60   30   92 1    
    61   31   93 1    
    62   31   94 1    
    63   31   95 1    
    64   32   33 am   BACKBONE|DICT|INTERRES
    65   32   96 1    
    66   33   34 2    
    67   33   35 1    
    68   35   36 1    
    69   35   37 1    
    70   35   97 1    
    71   36   98 1    
    72   36   99 1    
    73   36  100 1    
    74   37   38 am   BACKBONE|DICT|INTERRES
    75   37  101 1    
    76   38   39 2    
    77   38   40 1    
    78   40   41 1    
    79   40   42 1    
    80   40  102 1    
    81   41  103 1    
    82   41  104 1    
    83   41  105 1    
    84   42   43 am   BACKBONE|DICT|INTERRES
    85   42  106 1    
    86   43   44 2    
    87   43   45 1    
    88   45   46 1    
    89   45   49 1    
    90   45  107 1    
    91   46   47 1    
    92   46  108 1    
    93   46  109 1    
    94   47   48 1    
    95   48  110 1    
    96   48  111 1    
    97   49   50 am   BACKBONE|DICT|INTERRES
    98   49  112 1    
    99   50   51 2    
   100   50   52 1    
   101   52   53 1    
   102   52   54 1    
   103   52  113 1    
   104   53  114 1    
   105   53  115 1    
   106   53  116 1    
   107   54   55 am   BACKBONE|DICT|INTERRES
   108   54  117 1    
   109   55   56 2    
   110   55   57 1    
   111   57   58 1    
   112   57   59 1    
   113   57  118 1    
   114   58  119 1    
   115   58  120 1    
   116   58  121 1    
   117   59   60 am   BACKBONE|DICT|INTERRES
   118   59  122 1    
   119   60   61 2    
   120   60   62 1    
   121   62   63 1    
   122   62   64 1    
   123   62  123 1    
   124   63  124 1    
   125   63  125 1    
   126   63  126 1    
   127   64   65 am   BACKBONE|DICT|INTERRES
   128   64  127 1    
   129   65   66 2    
@<TRIPOS>SUBSTRUCTURE
     1 UNK         1 GROUP             0       ****    0 ROOT    
