@<TRIPOS>MOLECULE
3R135
127   129    1
SMALL
USER_CHARGES


@<TRIPOS>ATOM
      1 CA        -84.2568   31.1146  -74.7769 C.3       0 UNK        -0.1998 
      2 C         -83.4037   29.8793  -74.5271 C.2       0 UNK         0.4909 
      3 O         -83.9344   28.8644  -74.0754 O.2       0 UNK        -0.5240 
      4 N         -82.0981   29.9777  -74.8232 N.am      1 UNK        -0.4739 
      5 CA        -81.0490   28.9531  -74.6939 C.3       1 UNK         0.0864 
      6 C6        -80.3430   28.9374  -73.3051 C.3       11 UNK        -0.0881 
      7 S7        -81.3939   28.5424  -71.8638 S.3       11 UNK        -0.2682 
      8 C8        -80.4711   29.3522  -70.5142 C.3       11 UNK         0.0289 
      9 C9        -79.0663   28.7836  -70.3613 C.ar      11 UNK        -0.0687 
     10 C10       -78.8917   27.4285  -70.0637 C.ar      11 UNK        -0.0823 
     11 C11       -77.6097   26.8792  -69.9918 C.ar      11 UNK        -0.0830 
     12 C12       -76.4960   27.7077  -70.1483 C.ar      11 UNK        -0.1021 
     13 C13       -76.6551   29.0617  -70.4511 C.ar      11 UNK        -0.0753 
     14 C14       -77.9433   29.5975  -70.5546 C.ar      11 UNK        -0.0933 
     15 C15       -75.4237   29.9193  -70.6971 C.3       11 UNK         0.0166 
     16 S16       -74.6282   29.4843  -72.2795 S.3       11 UNK        -0.2615 
     17 C17       -72.9796   30.2372  -72.0617 C.3       11 UNK        -0.0865 
     18 CA        -72.5233   31.0715  -73.2860 C.3       10 UNK         0.0862 
     19 C         -71.2097   31.8309  -72.9450 C.2       10 UNK         0.5551 
     20 N         -71.3037   33.1033  -72.5838 N.am      10 UNK        -0.7319 
     21 O         -70.1201   31.2621  -72.9540 O.2       10 UNK        -0.5018 
     22 N         -72.4118   30.2344  -74.4926 N.am      10 UNK        -0.4509 
     23 C         -72.0637   30.6626  -75.7143 C.2       10 UNK         0.4899 
     24 O         -71.8625   31.8475  -75.9860 O.2       10 UNK        -0.4839 
     25 CA        -71.9641   29.6120  -76.8418 C.3       9 UNK         0.0222 
     26 CB        -70.8286   29.9278  -77.8388 C.3       9 UNK        -0.1966 
     27 N         -71.8906   28.2146  -76.3911 N.am      9 UNK        -0.4218 
     28 C         -70.9144   27.6247  -75.6809 C.2       9 UNK         0.5020 
     29 O         -69.9070   28.2108  -75.2845 O.2       9 UNK        -0.5274 
     30 CA        -71.0850   26.1337  -75.3286 C.3       8 UNK         0.0270 
     31 CB        -71.3440   25.9674  -73.8210 C.3       8 UNK        -0.1976 
     32 N         -72.1646   25.4845  -76.0798 N.am      8 UNK        -0.4313 
     33 C         -72.0329   24.9949  -77.3232 C.2       8 UNK         0.5041 
     34 O         -70.9619   24.9691  -77.9309 O.2       8 UNK        -0.5577 
     35 CA        -73.2986   24.4625  -78.0293 C.3       7 UNK         0.0284 
     36 CB        -73.3933   22.9356  -77.8808 C.3       7 UNK        -0.1958 
     37 N         -74.5502   25.0623  -77.5608 N.am      7 UNK        -0.4454 
     38 C         -74.8446   26.3695  -77.5783 C.2       7 UNK         0.5089 
     39 O         -74.1210   27.2279  -78.0813 O.2       7 UNK        -0.5125 
     40 CA        -76.1199   26.8066  -76.8395 C.3       6 UNK         0.0408 
     41 CB        -77.2925   26.9347  -77.8230 C.3       6 UNK        -0.1791 
     42 N         -76.5055   25.9218  -75.7350 N.am      6 UNK        -0.4762 
     43 C         -75.7480   25.5960  -74.6759 C.2       6 UNK         0.5007 
     44 O         -74.5863   25.9732  -74.5252 O.2       6 UNK        -0.5032 
     45 CA        -76.3878   24.6635  -73.6331 C.3       5 UNK         0.0783 
     46 C46       -77.3618   25.4579  -72.7381 C.3       11 UNK        -0.0857 
     47 S47       -78.0251   24.4796  -71.3401 S.3       11 UNK        -0.2512 
     48 C48       -77.4216   25.3744  -69.8624 C.3       11 UNK         0.0225 
     49 N         -77.0426   23.5385  -74.2994 N.am      5 UNK        -0.4615 
     50 C         -76.4104   22.4461  -74.7434 C.2       4 UNK         0.5053 
     51 O         -75.2081   22.2382  -74.5826 O.2       4 UNK        -0.5105 
     52 CA        -77.2591   21.4103  -75.5021 C.3       4 UNK         0.0263 
     53 CB        -77.7859   20.3383  -74.5347 C.3       4 UNK        -0.1981 
     54 N         -78.3866   22.0055  -76.2256 N.am      4 UNK        -0.4224 
     55 C         -78.2650   22.7998  -77.2987 C.2       3 UNK         0.4895 
     56 O         -77.1877   23.0913  -77.8199 O.2       3 UNK        -0.5091 
     57 CA        -79.5666   23.4023  -77.8597 C.3       3 UNK         0.0250 
     58 CB        -80.2374   22.4209  -78.8342 C.3       3 UNK        -0.1996 
     59 N         -80.5373   23.8223  -76.8374 N.am      3 UNK        -0.4254 
     60 C         -80.2862   24.7158  -75.8703 C.2       2 UNK         0.5004 
     61 O         -79.1732   25.2011  -75.6659 O.2       2 UNK        -0.5226 
     62 CA        -81.4496   25.1102  -74.9466 C.3       2 UNK         0.0269 
     63 CB        -81.4891   24.1862  -73.7190 C.3       2 UNK        -0.1926 
     64 N         -81.3040   26.4963  -74.4921 N.am      2 UNK        -0.4687 
     65 C         -81.4440   27.5739  -75.2764 C.2       1 UNK         0.5165 
     66 O         -81.8372   27.5124  -76.4445 O.2       1 UNK        -0.5079 
     67 H67       -85.0450   30.8873  -75.4942 H         1 UNK         0.0900 
     68 H68       -84.7247   31.4403  -73.8483 H         1 UNK         0.0900 
     69 H69       -83.6707   31.9454  -75.1696 H         1 UNK         0.0900 
     70 H70       -81.7728   30.8506  -75.2145 H         1 UNK         0.2959 
     71 H71       -80.2792   29.2886  -75.3912 H         1 UNK         0.1079 
     72 H72       -79.9032   29.9212  -73.1341 H         1 UNK         0.0837 
     73 H73       -79.4951   28.2493  -73.3146 H         1 UNK         0.0837 
     74 H74       -80.4416   30.4275  -70.6967 H         1 UNK         0.0685 
     75 H75       -81.0158   29.2124  -69.5796 H         1 UNK         0.0685 
     76 H76       -79.7560   26.7874  -69.9542 H         1 UNK         0.1434 
     77 H77       -75.5000   27.2880  -70.1050 H         1 UNK         0.1329 
     78 H78       -78.0711   30.6424  -70.8023 H         1 UNK         0.1335 
     79 H79       -74.7202   29.7669  -69.8770 H         1 UNK         0.0680 
     80 H80       -75.6783   30.9803  -70.6992 H         1 UNK         0.0680 
     81 H81       -72.2621   29.4413  -71.8518 H         1 UNK         0.1032 
     82 H82       -72.9961   30.8664  -71.1693 H         1 UNK         0.1032 
     83 H83       -73.2964   31.8141  -73.4943 H         1 UNK         0.0461 
     84 H84       -72.1944   33.5755  -72.5644 H         1 UNK         0.3453 
     85 H85       -70.4650   33.6073  -72.3413 H         1 UNK         0.3453 
     86 H86       -72.5705   29.2474  -74.3601 H         1 UNK         0.2984 
     87 H87       -72.9035   29.6880  -77.3910 H         1 UNK         0.0554 
     88 H88       -70.9733   30.9035  -78.3043 H         1 UNK         0.0847 
     89 H89       -70.7902   29.1920  -78.6421 H         1 UNK         0.0847 
     90 H90       -69.8538   29.9442  -77.3506 H         1 UNK         0.0847 
     91 H91       -72.6617   27.6358  -76.7072 H         1 UNK         0.3141 
     92 H92       -70.1426   25.6337  -75.5625 H         1 UNK         0.0743 
     93 H93       -71.4794   24.9195  -73.5527 H         1 UNK         0.0784 
     94 H94       -70.5022   26.3443  -73.2385 H         1 UNK         0.0784 
     95 H95       -72.2298   26.5149  -73.4970 H         1 UNK         0.0784 
     96 H96       -73.0816   25.4880  -75.6383 H         1 UNK         0.3213 
     97 H97       -73.2017   24.7006  -79.0905 H         1 UNK         0.0855 
     98 H98       -73.5095   22.6392  -76.8374 H         1 UNK         0.0814 
     99 H99       -72.4937   22.4492  -78.2605 H         1 UNK         0.0814 
    100 H100      -74.2392   22.5334  -78.4391 H         1 UNK         0.0814 
    101 H101      -75.2351   24.4352  -77.1586 H         1 UNK         0.3105 
    102 H102      -75.9255   27.7907  -76.4086 H         1 UNK         0.0547 
    103 H103      -77.0531   27.6298  -78.6288 H         1 UNK         0.0837 
    104 H104      -78.1895   27.3079  -77.3281 H         1 UNK         0.0837 
    105 H105      -77.5364   25.9757  -78.2804 H         1 UNK         0.0837 
    106 H106      -77.4673   25.5796  -75.7550 H         1 UNK         0.3020 
    107 H107      -75.5816   24.2813  -73.0020 H         1 UNK         0.1245 
    108 H108      -78.2114   25.8272  -73.3140 H         1 UNK         0.0781 
    109 H109      -76.8539   26.3485  -72.3746 H         1 UNK         0.0781 
    110 H110      -76.3703   25.1269  -69.7073 H         1 UNK         0.0836 
    111 H111      -77.9554   25.0142  -68.9820 H         1 UNK         0.0836 
    112 H112      -78.0207   23.6640  -74.5200 H         1 UNK         0.3022 
    113 H113      -76.6082   20.9239  -76.2320 H         1 UNK         0.0747 
    114 H114      -78.3264   19.5545  -75.0657 H         1 UNK         0.0793 
    115 H115      -76.9644   19.8582  -74.0008 H         1 UNK         0.0793 
    116 H116      -78.4563   20.7630  -73.7861 H         1 UNK         0.0793 
    117 H117      -79.3123   21.8202  -75.8678 H         1 UNK         0.3047 
    118 H118      -79.2890   24.2957  -78.4224 H         1 UNK         0.0822 
    119 H119      -81.0929   22.8777  -79.3323 H         1 UNK         0.0807 
    120 H120      -80.5848   21.5196  -78.3275 H         1 UNK         0.0807 
    121 H121      -79.5414   22.1084  -79.6142 H         1 UNK         0.0807 
    122 H122      -81.4730   23.4524  -76.9275 H         1 UNK         0.2946 
    123 H123      -82.3891   25.0215  -75.4967 H         1 UNK         0.1144 
    124 H124      -82.3152   24.4439  -73.0558 H         1 UNK         0.0793 
    125 H125      -80.5661   24.2436  -73.1404 H         1 UNK         0.0793 
    126 H126      -81.6252   23.1450  -74.0141 H         1 UNK         0.0793 
    127 H127      -80.9924   26.6373  -73.5414 H         1 UNK         0.2896 
@<TRIPOS>BOND
     1    1    2 1    
     2    1   67 1    
     3    1   68 1    
     4    1   69 1    
     5    2    3 2    
     6    2    4 am   BACKBONE|DICT|INTERRES
     7    4    5 1    
     8    4   70 1    
     9    5    6 1    
    10    5   65 1    
    11    5   71 1    
    12    6    7 1    
    13    6   72 1    
    14    6   73 1    
    15    7    8 1    
    16    8    9 1    
    17    8   74 1    
    18    8   75 1    
    19    9   10 ar   
    20    9   14 ar   
    21   10   11 ar   
    22   10   76 1    
    23   11   12 ar   
    24   11   48 1    
    25   12   13 ar   
    26   12   77 1    
    27   13   14 ar   
    28   13   15 1    
    29   14   78 1    
    30   15   16 1    
    31   15   79 1    
    32   15   80 1    
    33   16   17 1    
    34   17   18 1    
    35   17   81 1    
    36   17   82 1    
    37   18   19 1    
    38   18   22 1    
    39   18   83 1    
    40   19   20 am   BACKBONE|DICT|INTERRES
    41   19   21 2    
    42   20   84 1    
    43   20   85 1    
    44   22   23 am   BACKBONE|DICT|INTERRES
    45   22   86 1    
    46   23   24 2    
    47   23   25 1    
    48   25   26 1    
    49   25   27 1    
    50   25   87 1    
    51   26   88 1    
    52   26   89 1    
    53   26   90 1    
    54   27   28 am   BACKBONE|DICT|INTERRES
    55   27   91 1    
    56   28   29 2    
    57   28   30 1    
    58   30   31 1    
    59   30   32 1    
    60   30   92 1    
    61   31   93 1    
    62   31   94 1    
    63   31   95 1    
    64   32   33 am   BACKBONE|DICT|INTERRES
    65   32   96 1    
    66   33   34 2    
    67   33   35 1    
    68   35   36 1    
    69   35   37 1    
    70   35   97 1    
    71   36   98 1    
    72   36   99 1    
    73   36  100 1    
    74   37   38 am   BACKBONE|DICT|INTERRES
    75   37  101 1    
    76   38   39 2    
    77   38   40 1    
    78   40   41 1    
    79   40   42 1    
    80   40  102 1    
    81   41  103 1    
    82   41  104 1    
    83   41  105 1    
    84   42   43 am   BACKBONE|DICT|INTERRES
    85   42  106 1    
    86   43   44 2    
    87   43   45 1    
    88   45   46 1    
    89   45   49 1    
    90   45  107 1    
    91   46   47 1    
    92   46  108 1    
    93   46  109 1    
    94   47   48 1    
    95   48  110 1    
    96   48  111 1    
    97   49   50 am   BACKBONE|DICT|INTERRES
    98   49  112 1    
    99   50   51 2    
   100   50   52 1    
   101   52   53 1    
   102   52   54 1    
   103   52  113 1    
   104   53  114 1    
   105   53  115 1    
   106   53  116 1    
   107   54   55 am   BACKBONE|DICT|INTERRES
   108   54  117 1    
   109   55   56 2    
   110   55   57 1    
   111   57   58 1    
   112   57   59 1    
   113   57  118 1    
   114   58  119 1    
   115   58  120 1    
   116   58  121 1    
   117   59   60 am   BACKBONE|DICT|INTERRES
   118   59  122 1    
   119   60   61 2    
   120   60   62 1    
   121   62   63 1    
   122   62   64 1    
   123   62  123 1    
   124   63  124 1    
   125   63  125 1    
   126   63  126 1    
   127   64   65 am   BACKBONE|DICT|INTERRES
   128   64  127 1    
   129   65   66 2    
@<TRIPOS>SUBSTRUCTURE
     1 UNK         1 GROUP             0       ****    0 ROOT    
