@<TRIPOS>MOLECULE
3R135
127   129    1
SMALL
USER_CHARGES


@<TRIPOS>ATOM
      1 CA        -82.2251   22.8425  -70.2511 C.3       0 UNK        -0.1998 
      2 C         -82.3898   24.0280  -71.1904 C.2       0 UNK         0.4909 
      3 O         -83.4790   24.2383  -71.7262 O.2       0 UNK        -0.5240 
      4 N         -81.3198   24.8085  -71.3848 N.am      1 UNK        -0.4739 
      5 CA        -81.2745   25.9577  -72.2972 C.3       1 UNK         0.0864 
      6 C6        -80.0679   26.8815  -71.9985 C.3       11 UNK        -0.0881 
      7 S7        -80.0744   27.5031  -70.2802 S.3       11 UNK        -0.2682 
      8 C8        -80.1346   29.3075  -70.5178 C.3       11 UNK         0.0289 
      9 C9        -78.8739   29.8287  -71.1925 C.ar      11 UNK        -0.0687 
     10 C10       -78.9181   30.2833  -72.5139 C.ar      11 UNK        -0.0823 
     11 C11       -77.7582   30.7378  -73.1476 C.ar      11 UNK        -0.0830 
     12 C12       -76.5505   30.7500  -72.4437 C.ar      11 UNK        -0.1021 
     13 C13       -76.4938   30.2945  -71.1234 C.ar      11 UNK        -0.0753 
     14 C14       -77.6596   29.8429  -70.4990 C.ar      11 UNK        -0.0933 
     15 C15       -75.1633   30.2585  -70.3919 C.3       11 UNK         0.0166 
     16 S16       -74.3011   28.7002  -70.7545 S.3       11 UNK        -0.2615 
     17 C17       -72.5576   29.1521  -70.4529 C.3       11 UNK        -0.0865 
     18 CA        -71.9283   30.0575  -71.5505 C.3       10 UNK         0.0862 
     19 C         -70.4041   30.2505  -71.2977 C.2       10 UNK         0.5551 
     20 N         -69.5211   29.8430  -72.2012 N.am      10 UNK        -0.7319 
     21 O         -70.0182   30.7827  -70.2598 O.2       10 UNK        -0.5018 
     22 N         -72.2939   29.6236  -72.9095 N.am      10 UNK        -0.4509 
     23 C         -72.2245   30.3738  -74.0137 C.2       10 UNK         0.4899 
     24 O         -71.7731   31.5200  -74.0316 O.2       10 UNK        -0.4839 
     25 CA        -72.7564   29.7313  -75.3105 C.3       9 UNK         0.0222 
     26 CB        -72.6306   30.6626  -76.5307 C.3       9 UNK        -0.1966 
     27 N         -72.1138   28.4492  -75.6201 N.am      9 UNK        -0.4218 
     28 C         -72.4025   27.2808  -75.0338 C.2       9 UNK         0.5020 
     29 O         -73.1994   27.1649  -74.1019 O.2       9 UNK        -0.5274 
     30 CA        -71.6718   26.0424  -75.5597 C.3       8 UNK         0.0270 
     31 CB        -70.9743   25.2721  -74.4225 C.3       8 UNK        -0.1976 
     32 N         -72.6345   25.1778  -76.2392 N.am      8 UNK        -0.4313 
     33 C         -72.3278   24.3445  -77.2424 C.2       8 UNK         0.5041 
     34 O         -71.1857   24.1952  -77.6807 O.2       8 UNK        -0.5577 
     35 CA        -73.4787   23.5466  -77.8806 C.3       7 UNK         0.0284 
     36 CB        -73.9224   22.3890  -76.9711 C.3       7 UNK        -0.1958 
     37 N         -74.6288   24.3855  -78.2204 N.am      7 UNK        -0.4454 
     38 C         -74.6402   25.3112  -79.1910 C.2       7 UNK         0.5089 
     39 O         -73.6996   25.5129  -79.9599 O.2       7 UNK        -0.5125 
     40 CA        -75.9100   26.1752  -79.3149 C.3       6 UNK         0.0408 
     41 CB        -76.9607   25.4921  -80.2042 C.3       6 UNK        -0.1791 
     42 N         -76.4904   26.5066  -78.0100 N.am      6 UNK        -0.4762 
     43 C         -75.8876   27.2975  -77.1079 C.2       6 UNK         0.5007 
     44 O         -74.8308   27.8866  -77.3300 O.2       6 UNK        -0.5032 
     45 CA        -76.5520   27.4181  -75.7195 C.3       5 UNK         0.0783 
     46 C46       -77.5727   28.5841  -75.6712 C.3       11 UNK        -0.0857 
     47 S47       -76.7602   30.2211  -75.6977 S.3       11 UNK        -0.2512 
     48 C48       -77.8124   31.2155  -74.5920 C.3       11 UNK         0.0225 
     49 N         -77.1559   26.1434  -75.3118 N.am      5 UNK        -0.4615 
     50 C         -76.4529   25.0494  -74.9776 C.2       4 UNK         0.5053 
     51 O         -75.2251   25.0162  -74.9323 O.2       4 UNK        -0.5105 
     52 CA        -77.2371   23.7495  -74.7208 C.3       4 UNK         0.0263 
     53 CB        -77.6539   23.6299  -73.2481 C.3       4 UNK        -0.1981 
     54 N         -78.4077   23.6181  -75.5916 N.am      4 UNK        -0.4224 
     55 C         -78.3170   23.4472  -76.9194 C.2       3 UNK         0.4895 
     56 O         -77.2458   23.3007  -77.5068 O.2       3 UNK        -0.5091 
     57 CA        -79.6129   23.4905  -77.7492 C.3       3 UNK         0.0250 
     58 CB        -80.1070   22.0654  -78.0422 C.3       3 UNK        -0.1996 
     59 N         -80.6994   24.2641  -77.1434 N.am      3 UNK        -0.4254 
     60 C         -80.6488   25.5601  -76.8026 C.2       2 UNK         0.5004 
     61 O         -79.6559   26.2714  -76.9626 O.2       2 UNK        -0.5226 
     62 CA        -81.8975   26.1523  -76.1194 C.3       2 UNK         0.0269 
     63 CB        -83.1842   25.3292  -76.3568 C.3       2 UNK        -0.1926 
     64 N         -81.7109   26.3733  -74.6772 N.am      2 UNK        -0.4687 
     65 C         -81.2621   25.4909  -73.7696 C.2       1 UNK         0.5165 
     66 O         -80.8365   24.3667  -74.0535 O.2       1 UNK        -0.5079 
     67 H67       -81.2161   22.7827  -69.8434 H         1 UNK         0.0900 
     68 H68       -82.9231   22.9234  -69.4182 H         1 UNK         0.0900 
     69 H69       -82.4319   21.9132  -70.7811 H         1 UNK         0.0900 
     70 H70       -80.4510   24.5881  -70.9204 H         1 UNK         0.2959 
     71 H71       -82.1900   26.5343  -72.1451 H         1 UNK         0.1079 
     72 H72       -79.1226   26.3636  -72.1596 H         1 UNK         0.0837 
     73 H73       -80.0635   27.7251  -72.6892 H         1 UNK         0.0837 
     74 H74       -81.0252   29.5669  -71.0925 H         1 UNK         0.0685 
     75 H75       -80.2464   29.7885  -69.5451 H         1 UNK         0.0685 
     76 H76       -79.8554   30.2726  -73.0533 H         1 UNK         0.1434 
     77 H77       -75.6478   31.0896  -72.9336 H         1 UNK         0.1329 
     78 H78       -77.6192   29.4775  -69.4819 H         1 UNK         0.1335 
     79 H79       -74.5571   31.1107  -70.7001 H         1 UNK         0.0680 
     80 H80       -75.3087   30.3532  -69.3148 H         1 UNK         0.0680 
     81 H81       -72.4829   29.6304  -69.4743 H         1 UNK         0.1032 
     82 H82       -71.9964   28.2190  -70.3729 H         1 UNK         0.1032 
     83 H83       -72.3591   31.0523  -71.4280 H         1 UNK         0.0461 
     84 H84       -68.5371   29.9755  -72.0286 H         1 UNK         0.3453 
     85 H85       -69.8337   29.4181  -73.0588 H         1 UNK         0.3453 
     86 H86       -72.6883   28.6907  -72.9970 H         1 UNK         0.2984 
     87 H87       -73.8212   29.5487  -75.1527 H         1 UNK         0.0554 
     88 H88       -73.1490   31.6064  -76.3564 H         1 UNK         0.0847 
     89 H89       -73.0785   30.2128  -77.4173 H         1 UNK         0.0847 
     90 H90       -71.5899   30.8966  -76.7581 H         1 UNK         0.0847 
     91 H91       -71.4314   28.4613  -76.3643 H         1 UNK         0.3141 
     92 H92       -70.9112   26.3679  -76.2729 H         1 UNK         0.0743 
     93 H93       -71.6941   24.8818  -73.7017 H         1 UNK         0.0784 
     94 H94       -70.3979   24.4309  -74.8078 H         1 UNK         0.0784 
     95 H95       -70.2835   25.9180  -73.8792 H         1 UNK         0.0784 
     96 H96       -73.5937   25.2324  -75.8960 H         1 UNK         0.3213 
     97 H97       -73.1029   23.1123  -78.8097 H         1 UNK         0.0855 
     98 H98       -74.3036   22.7448  -76.0143 H         1 UNK         0.0814 
     99 H99       -73.0872   21.7204  -76.7589 H         1 UNK         0.0814 
    100 H100      -74.7047   21.7926  -77.4411 H         1 UNK         0.0814 
    101 H101      -75.4849   24.2271  -77.6984 H         1 UNK         0.3105 
    102 H102      -75.6268   27.1132  -79.7973 H         1 UNK         0.0547 
    103 H103      -76.5735   25.3468  -81.2135 H         1 UNK         0.0837 
    104 H104      -77.2413   24.5100  -79.8259 H         1 UNK         0.0837 
    105 H105      -77.8658   26.0937  -80.2884 H         1 UNK         0.0837 
    106 H106      -77.3704   26.0728  -77.7634 H         1 UNK         0.3020 
    107 H107      -75.7562   27.6365  -75.0023 H         1 UNK         0.1245 
    108 H108      -78.1684   28.5056  -74.7611 H         1 UNK         0.0781 
    109 H109      -78.2819   28.5276  -76.4989 H         1 UNK         0.0781 
    110 H110      -78.8348   31.2064  -74.9730 H         1 UNK         0.0836 
    111 H111      -77.4806   32.2539  -74.6321 H         1 UNK         0.0836 
    112 H112      -78.1582   26.0680  -75.4322 H         1 UNK         0.3022 
    113 H113      -76.5660   22.9163  -74.9400 H         1 UNK         0.0747 
    114 H114      -78.1299   22.6698  -73.0484 H         1 UNK         0.0793 
    115 H115      -76.7875   23.7073  -72.5897 H         1 UNK         0.0793 
    116 H116      -78.3525   24.4125  -72.9620 H         1 UNK         0.0793 
    117 H117      -79.3217   23.7494  -75.1654 H         1 UNK         0.3047 
    118 H118      -79.3697   23.9692  -78.6995 H         1 UNK         0.0822 
    119 H119      -80.9635   22.0718  -78.7166 H         1 UNK         0.0807 
    120 H120      -80.3997   21.5444  -77.1296 H         1 UNK         0.0807 
    121 H121      -79.3260   21.4720  -78.5201 H         1 UNK         0.0807 
    122 H122      -81.5458   23.7569  -76.9293 H         1 UNK         0.2946 
    123 H123      -82.0451   27.1335  -76.5742 H         1 UNK         0.1144 
    124 H124      -84.0588   25.8607  -75.9814 H         1 UNK         0.0793 
    125 H125      -83.1553   24.3601  -75.8571 H         1 UNK         0.0793 
    126 H126      -83.3537   25.1543  -77.4204 H         1 UNK         0.0793 
    127 H127      -81.9933   27.2867  -74.3492 H         1 UNK         0.2896 
@<TRIPOS>BOND
     1    1    2 1    
     2    1   67 1    
     3    1   68 1    
     4    1   69 1    
     5    2    3 2    
     6    2    4 am   BACKBONE|DICT|INTERRES
     7    4    5 1    
     8    4   70 1    
     9    5    6 1    
    10    5   65 1    
    11    5   71 1    
    12    6    7 1    
    13    6   72 1    
    14    6   73 1    
    15    7    8 1    
    16    8    9 1    
    17    8   74 1    
    18    8   75 1    
    19    9   10 ar   
    20    9   14 ar   
    21   10   11 ar   
    22   10   76 1    
    23   11   12 ar   
    24   11   48 1    
    25   12   13 ar   
    26   12   77 1    
    27   13   14 ar   
    28   13   15 1    
    29   14   78 1    
    30   15   16 1    
    31   15   79 1    
    32   15   80 1    
    33   16   17 1    
    34   17   18 1    
    35   17   81 1    
    36   17   82 1    
    37   18   19 1    
    38   18   22 1    
    39   18   83 1    
    40   19   20 am   BACKBONE|DICT|INTERRES
    41   19   21 2    
    42   20   84 1    
    43   20   85 1    
    44   22   23 am   BACKBONE|DICT|INTERRES
    45   22   86 1    
    46   23   24 2    
    47   23   25 1    
    48   25   26 1    
    49   25   27 1    
    50   25   87 1    
    51   26   88 1    
    52   26   89 1    
    53   26   90 1    
    54   27   28 am   BACKBONE|DICT|INTERRES
    55   27   91 1    
    56   28   29 2    
    57   28   30 1    
    58   30   31 1    
    59   30   32 1    
    60   30   92 1    
    61   31   93 1    
    62   31   94 1    
    63   31   95 1    
    64   32   33 am   BACKBONE|DICT|INTERRES
    65   32   96 1    
    66   33   34 2    
    67   33   35 1    
    68   35   36 1    
    69   35   37 1    
    70   35   97 1    
    71   36   98 1    
    72   36   99 1    
    73   36  100 1    
    74   37   38 am   BACKBONE|DICT|INTERRES
    75   37  101 1    
    76   38   39 2    
    77   38   40 1    
    78   40   41 1    
    79   40   42 1    
    80   40  102 1    
    81   41  103 1    
    82   41  104 1    
    83   41  105 1    
    84   42   43 am   BACKBONE|DICT|INTERRES
    85   42  106 1    
    86   43   44 2    
    87   43   45 1    
    88   45   46 1    
    89   45   49 1    
    90   45  107 1    
    91   46   47 1    
    92   46  108 1    
    93   46  109 1    
    94   47   48 1    
    95   48  110 1    
    96   48  111 1    
    97   49   50 am   BACKBONE|DICT|INTERRES
    98   49  112 1    
    99   50   51 2    
   100   50   52 1    
   101   52   53 1    
   102   52   54 1    
   103   52  113 1    
   104   53  114 1    
   105   53  115 1    
   106   53  116 1    
   107   54   55 am   BACKBONE|DICT|INTERRES
   108   54  117 1    
   109   55   56 2    
   110   55   57 1    
   111   57   58 1    
   112   57   59 1    
   113   57  118 1    
   114   58  119 1    
   115   58  120 1    
   116   58  121 1    
   117   59   60 am   BACKBONE|DICT|INTERRES
   118   59  122 1    
   119   60   61 2    
   120   60   62 1    
   121   62   63 1    
   122   62   64 1    
   123   62  123 1    
   124   63  124 1    
   125   63  125 1    
   126   63  126 1    
   127   64   65 am   BACKBONE|DICT|INTERRES
   128   64  127 1    
   129   65   66 2    
@<TRIPOS>SUBSTRUCTURE
     1 UNK         1 GROUP             0       ****    0 ROOT    
