@<TRIPOS>MOLECULE
3R135
127   129    1
SMALL
USER_CHARGES


@<TRIPOS>ATOM
      1 CA        -81.3804   21.7816  -69.8143 C.3       0 UNK        -0.1998 
      2 C         -81.7610   23.1753  -70.2903 C.2       0 UNK         0.4909 
      3 O         -82.8098   23.6903  -69.9022 O.2       0 UNK        -0.5240 
      4 N         -80.9174   23.7891  -71.1308 N.am      1 UNK        -0.4739 
      5 CA        -81.1157   25.1385  -71.6795 C.3       1 UNK         0.0864 
      6 C6        -79.7987   25.7314  -72.2354 C.3       11 UNK        -0.0881 
      7 S7        -78.5444   25.9853  -70.9340 S.3       11 UNK        -0.2682 
      8 C8        -78.7049   27.7709  -70.5991 C.3       11 UNK         0.0289 
      9 C9        -78.0221   28.6109  -71.6695 C.ar      11 UNK        -0.0687 
     10 C10       -78.7494   29.0952  -72.7599 C.ar      11 UNK        -0.0823 
     11 C11       -78.1168   29.8196  -73.7727 C.ar      11 UNK        -0.0830 
     12 C12       -76.7509   30.0998  -73.6696 C.ar      11 UNK        -0.1021 
     13 C13       -76.0191   29.6512  -72.5652 C.ar      11 UNK        -0.0753 
     14 C14       -76.6583   28.9017  -71.5723 C.ar      11 UNK        -0.0933 
     15 C15       -74.5309   29.9436  -72.4625 C.3       11 UNK         0.0166 
     16 S16       -74.2073   31.6956  -72.1087 S.3       11 UNK        -0.2615 
     17 C17       -72.4245   31.6588  -71.7163 C.3       11 UNK        -0.0865 
     18 CA        -71.5326   31.7905  -72.9774 C.3       10 UNK         0.0862 
     19 C         -70.0864   32.2074  -72.5971 C.2       10 UNK         0.5551 
     20 N         -69.8117   33.5032  -72.5408 N.am      10 UNK        -0.7319 
     21 O         -69.2272   31.3746  -72.3135 O.2       10 UNK        -0.5018 
     22 N         -71.5374   30.5497  -73.7631 N.am      10 UNK        -0.4509 
     23 C         -71.2487   30.4659  -75.0637 C.2       10 UNK         0.4899 
     24 O         -71.0425   31.4487  -75.7769 O.2       10 UNK        -0.4839 
     25 CA        -71.1765   29.0653  -75.7018 C.3       9 UNK         0.0222 
     26 CB        -69.7140   28.5940  -75.8157 C.3       9 UNK        -0.1966 
     27 N         -72.0168   28.0184  -75.0992 N.am      9 UNK        -0.4218 
     28 C         -71.9244   27.4299  -73.8967 C.2       9 UNK         0.5020 
     29 O         -71.1832   27.8228  -72.9956 O.2       9 UNK        -0.5274 
     30 CA        -72.7947   26.1803  -73.6577 C.3       8 UNK         0.0270 
     31 CB        -74.1444   26.5434  -73.0220 C.3       8 UNK        -0.1976 
     32 N         -73.0377   25.4043  -74.8748 N.am      8 UNK        -0.4313 
     33 C         -72.1083   24.7074  -75.5438 C.2       8 UNK         0.5041 
     34 O         -70.9331   24.6074  -75.1896 O.2       8 UNK        -0.5577 
     35 CA        -72.5698   24.0144  -76.8341 C.3       7 UNK         0.0284 
     36 CB        -73.2750   22.6839  -76.5209 C.3       7 UNK        -0.1958 
     37 N         -73.4631   24.8777  -77.6083 N.am      7 UNK        -0.4454 
     38 C         -73.0462   25.8426  -78.4395 C.2       7 UNK         0.5089 
     39 O         -71.8624   26.0628  -78.6958 O.2       7 UNK        -0.5125 
     40 CA        -74.1296   26.7162  -79.0986 C.3       6 UNK         0.0408 
     41 CB        -74.5265   26.1362  -80.4652 C.3       6 UNK        -0.1791 
     42 N         -75.3314   26.8829  -78.2762 N.am      6 UNK        -0.4762 
     43 C         -75.3787   27.5764  -77.1290 C.2       6 UNK         0.5007 
     44 O         -74.4077   28.1487  -76.6366 O.2       6 UNK        -0.5032 
     45 CA        -76.7303   27.5988  -76.3872 C.3       5 UNK         0.0783 
     46 C46       -77.6137   28.7370  -76.9568 C.3       11 UNK        -0.0857 
     47 S47       -79.2294   28.8969  -76.1255 S.3       11 UNK        -0.2512 
     48 C48       -78.9195   30.2789  -74.9791 C.3       11 UNK         0.0225 
     49 N         -77.4167   26.2988  -76.3894 N.am      5 UNK        -0.4615 
     50 C         -76.8971   25.1305  -75.9858 C.2       4 UNK         0.5053 
     51 O         -75.7302   25.0058  -75.6142 O.2       4 UNK        -0.5105 
     52 CA        -77.8047   23.8859  -76.0009 C.3       4 UNK         0.0263 
     53 CB        -77.6325   23.0556  -74.7156 C.3       4 UNK        -0.1981 
     54 N         -79.2281   24.1866  -76.2006 N.am      4 UNK        -0.4224 
     55 C         -79.8115   24.3574  -77.3968 C.2       3 UNK         0.4895 
     56 O         -79.1812   24.3641  -78.4547 O.2       3 UNK        -0.5091 
     57 CA        -81.3393   24.5495  -77.4260 C.3       3 UNK         0.0250 
     58 CB        -81.9872   23.8364  -78.6318 C.3       3 UNK        -0.1996 
     59 N         -81.9755   24.1076  -76.1803 N.am      3 UNK        -0.4254 
     60 C         -83.1533   24.5511  -75.7214 C.2       2 UNK         0.5004 
     61 O         -83.8467   25.3917  -76.2951 O.2       2 UNK        -0.5226 
     62 CA        -83.6265   23.9623  -74.3825 C.3       2 UNK         0.0269 
     63 CB        -84.0714   22.4986  -74.5437 C.3       2 UNK        -0.1926 
     64 N         -82.6003   24.0569  -73.3397 N.am      2 UNK        -0.4687 
     65 C         -82.2245   25.2044  -72.7531 C.2       1 UNK         0.5165 
     66 O         -82.7168   26.2987  -73.0309 O.2       1 UNK        -0.5079 
     67 H67       -81.2936   21.7674  -68.7282 H         1 UNK         0.0900 
     68 H68       -80.4301   21.4521  -70.2342 H         1 UNK         0.0900 
     69 H69       -82.1468   21.0634  -70.1045 H         1 UNK         0.0900 
     70 H70       -80.0550   23.3320  -71.3915 H         1 UNK         0.2959 
     71 H71       -81.4529   25.7819  -70.8632 H         1 UNK         0.1079 
     72 H72       -79.3773   25.0752  -72.9955 H         1 UNK         0.0837 
     73 H73       -79.9851   26.6758  -72.7436 H         1 UNK         0.0837 
     74 H74       -79.7598   28.0368  -70.5137 H         1 UNK         0.0685 
     75 H75       -78.2588   27.9858  -69.6269 H         1 UNK         0.0685 
     76 H76       -79.8083   28.8918  -72.8383 H         1 UNK         0.1434 
     77 H77       -76.2530   30.6631  -74.4472 H         1 UNK         0.1329 
     78 H78       -76.0934   28.5330  -70.7270 H         1 UNK         0.1335 
     79 H79       -74.0727   29.3346  -71.6826 H         1 UNK         0.0680 
     80 H80       -74.0535   29.6677  -73.4026 H         1 UNK         0.0680 
     81 H81       -72.1776   30.7579  -71.1514 H         1 UNK         0.1032 
     82 H82       -72.2438   32.4922  -71.0341 H         1 UNK         0.1032 
     83 H83       -71.9486   32.5858  -73.5999 H         1 UNK         0.0461 
     84 H84       -68.8830   33.7970  -72.2809 H         1 UNK         0.3453 
     85 H85       -70.5117   34.1946  -72.7621 H         1 UNK         0.3453 
     86 H86       -71.5652   29.6787  -73.2424 H         1 UNK         0.2984 
     87 H87       -71.5596   29.1782  -76.7173 H         1 UNK         0.0554 
     88 H88       -69.6445   27.6453  -76.3486 H         1 UNK         0.0847 
     89 H89       -69.2520   28.4641  -74.8363 H         1 UNK         0.0847 
     90 H90       -69.1114   29.3193  -76.3640 H         1 UNK         0.0847 
     91 H91       -72.7747   27.7096  -75.7026 H         1 UNK         0.3141 
     92 H92       -72.2554   25.5371  -72.9591 H         1 UNK         0.0743 
     93 H93       -74.7252   27.2093  -73.6605 H         1 UNK         0.0784 
     94 H94       -74.7485   25.6547  -72.8373 H         1 UNK         0.0784 
     95 H95       -74.0012   27.0357  -72.0605 H         1 UNK         0.0784 
     96 H96       -74.0006   25.3655  -75.2064 H         1 UNK         0.3213 
     97 H97       -71.6827   23.7918  -77.4317 H         1 UNK         0.0855 
     98 H98       -74.1707   22.8268  -75.9155 H         1 UNK         0.0814 
     99 H99       -72.6134   22.0157  -75.9680 H         1 UNK         0.0814 
    100 H100      -73.5674   22.1662  -77.4344 H         1 UNK         0.0814 
    101 H101      -74.4515   24.8092  -77.4051 H         1 UNK         0.3105 
    102 H102      -73.6967   27.7053  -79.2632 H         1 UNK         0.0547 
    103 H103      -73.6533   26.0246  -81.1097 H         1 UNK         0.0837 
    104 H104      -74.9879   25.1525  -80.3696 H         1 UNK         0.0837 
    105 H105      -75.2282   26.7884  -80.9854 H         1 UNK         0.0837 
    106 H106      -76.1761   26.4322  -78.5998 H         1 UNK         0.3020 
    107 H107      -76.5094   27.8268  -75.3428 H         1 UNK         0.1245 
    108 H108      -77.0892   29.6931  -76.9007 H         1 UNK         0.0781 
    109 H109      -77.8111   28.5688  -78.0174 H         1 UNK         0.0781 
    110 H110      -79.8778   30.6787  -74.6439 H         1 UNK         0.0836 
    111 H111      -78.4177   31.0961  -75.4995 H         1 UNK         0.0836 
    112 H112      -78.3818   26.3150  -76.6828 H         1 UNK         0.3022 
    113 H113      -77.4626   23.2666  -76.8330 H         1 UNK         0.0747 
    114 H114      -78.2929   22.1883  -74.7068 H         1 UNK         0.0793 
    115 H115      -76.6121   22.6790  -74.6311 H         1 UNK         0.0793 
    116 H116      -77.8284   23.6420  -73.8190 H         1 UNK         0.0793 
    117 H117      -79.7906   24.2748  -75.3687 H         1 UNK         0.3047 
    118 H118      -81.5015   25.6241  -77.5349 H         1 UNK         0.0822 
    119 H119      -83.0588   24.0292  -78.6829 H         1 UNK         0.0807 
    120 H120      -81.8437   22.7565  -78.5819 H         1 UNK         0.0807 
    121 H121      -81.5587   24.1810  -79.5738 H         1 UNK         0.0807 
    122 H122      -81.5032   23.3775  -75.6665 H         1 UNK         0.2946 
    123 H123      -84.4943   24.5430  -74.0597 H         1 UNK         0.1144 
    124 H124      -84.8364   22.4072  -75.3162 H         1 UNK         0.0793 
    125 H125      -84.5011   22.1130  -73.6189 H         1 UNK         0.0793 
    126 H126      -83.2444   21.8460  -74.8255 H         1 UNK         0.0793 
    127 H127      -82.1648   23.1987  -73.0345 H         1 UNK         0.2896 
@<TRIPOS>BOND
     1    1    2 1    
     2    1   67 1    
     3    1   68 1    
     4    1   69 1    
     5    2    3 2    
     6    2    4 am   BACKBONE|DICT|INTERRES
     7    4    5 1    
     8    4   70 1    
     9    5    6 1    
    10    5   65 1    
    11    5   71 1    
    12    6    7 1    
    13    6   72 1    
    14    6   73 1    
    15    7    8 1    
    16    8    9 1    
    17    8   74 1    
    18    8   75 1    
    19    9   10 ar   
    20    9   14 ar   
    21   10   11 ar   
    22   10   76 1    
    23   11   12 ar   
    24   11   48 1    
    25   12   13 ar   
    26   12   77 1    
    27   13   14 ar   
    28   13   15 1    
    29   14   78 1    
    30   15   16 1    
    31   15   79 1    
    32   15   80 1    
    33   16   17 1    
    34   17   18 1    
    35   17   81 1    
    36   17   82 1    
    37   18   19 1    
    38   18   22 1    
    39   18   83 1    
    40   19   20 am   BACKBONE|DICT|INTERRES
    41   19   21 2    
    42   20   84 1    
    43   20   85 1    
    44   22   23 am   BACKBONE|DICT|INTERRES
    45   22   86 1    
    46   23   24 2    
    47   23   25 1    
    48   25   26 1    
    49   25   27 1    
    50   25   87 1    
    51   26   88 1    
    52   26   89 1    
    53   26   90 1    
    54   27   28 am   BACKBONE|DICT|INTERRES
    55   27   91 1    
    56   28   29 2    
    57   28   30 1    
    58   30   31 1    
    59   30   32 1    
    60   30   92 1    
    61   31   93 1    
    62   31   94 1    
    63   31   95 1    
    64   32   33 am   BACKBONE|DICT|INTERRES
    65   32   96 1    
    66   33   34 2    
    67   33   35 1    
    68   35   36 1    
    69   35   37 1    
    70   35   97 1    
    71   36   98 1    
    72   36   99 1    
    73   36  100 1    
    74   37   38 am   BACKBONE|DICT|INTERRES
    75   37  101 1    
    76   38   39 2    
    77   38   40 1    
    78   40   41 1    
    79   40   42 1    
    80   40  102 1    
    81   41  103 1    
    82   41  104 1    
    83   41  105 1    
    84   42   43 am   BACKBONE|DICT|INTERRES
    85   42  106 1    
    86   43   44 2    
    87   43   45 1    
    88   45   46 1    
    89   45   49 1    
    90   45  107 1    
    91   46   47 1    
    92   46  108 1    
    93   46  109 1    
    94   47   48 1    
    95   48  110 1    
    96   48  111 1    
    97   49   50 am   BACKBONE|DICT|INTERRES
    98   49  112 1    
    99   50   51 2    
   100   50   52 1    
   101   52   53 1    
   102   52   54 1    
   103   52  113 1    
   104   53  114 1    
   105   53  115 1    
   106   53  116 1    
   107   54   55 am   BACKBONE|DICT|INTERRES
   108   54  117 1    
   109   55   56 2    
   110   55   57 1    
   111   57   58 1    
   112   57   59 1    
   113   57  118 1    
   114   58  119 1    
   115   58  120 1    
   116   58  121 1    
   117   59   60 am   BACKBONE|DICT|INTERRES
   118   59  122 1    
   119   60   61 2    
   120   60   62 1    
   121   62   63 1    
   122   62   64 1    
   123   62  123 1    
   124   63  124 1    
   125   63  125 1    
   126   63  126 1    
   127   64   65 am   BACKBONE|DICT|INTERRES
   128   64  127 1    
   129   65   66 2    
@<TRIPOS>SUBSTRUCTURE
     1 UNK         1 GROUP             0       ****    0 ROOT    
