@<TRIPOS>MOLECULE
3R135
127   129    1
SMALL
USER_CHARGES


@<TRIPOS>ATOM
      1 CA        -80.9734   24.6354  -70.6782 C.3       0 UNK        -0.1998 
      2 C         -81.9500   25.3835  -71.5715 C.2       0 UNK         0.4909 
      3 O         -83.0074   24.8476  -71.9046 O.2       0 UNK        -0.5240 
      4 N         -81.6085   26.6216  -71.9548 N.am      1 UNK        -0.4739 
      5 CA        -82.4443   27.4977  -72.7925 C.3       1 UNK         0.0864 
      6 C6        -81.9808   28.9753  -72.7448 C.3       11 UNK        -0.0881 
      7 S7        -81.8856   29.6199  -71.0359 S.3       11 UNK        -0.2682 
      8 C8        -80.5881   30.8976  -71.1587 C.3       11 UNK         0.0289 
      9 C9        -79.2691   30.3518  -71.6905 C.ar      11 UNK        -0.0687 
     10 C10       -78.5844   29.3493  -70.9973 C.ar      11 UNK        -0.0823 
     11 C11       -77.4033   28.8107  -71.5153 C.ar      11 UNK        -0.0830 
     12 C12       -76.8977   29.2948  -72.7252 C.ar      11 UNK        -0.1021 
     13 C13       -77.5524   30.3227  -73.4106 C.ar      11 UNK        -0.0753 
     14 C14       -78.7405   30.8430  -72.8884 C.ar      11 UNK        -0.0933 
     15 C15       -76.9994   30.8609  -74.7244 C.3       11 UNK         0.0166 
     16 S16       -75.3845   31.6834  -74.5151 S.3       11 UNK        -0.2615 
     17 C17       -74.2464   30.3556  -75.0334 C.3       11 UNK        -0.0865 
     18 CA        -72.9201   30.2916  -74.2369 C.3       10 UNK         0.0862 
     19 C         -73.1314   29.7339  -72.8011 C.2       10 UNK         0.5551 
     20 N         -73.1228   28.4177  -72.6200 N.am      10 UNK        -0.7319 
     21 O         -73.2801   30.4958  -71.8496 O.2       10 UNK        -0.5018 
     22 N         -71.9355   29.5037  -74.9861 N.am      10 UNK        -0.4509 
     23 C         -70.6129   29.5241  -74.7901 C.2       10 UNK         0.4899 
     24 O         -70.0355   30.3478  -74.0801 O.2       10 UNK        -0.4839 
     25 CA        -69.7926   28.4254  -75.4878 C.3       9 UNK         0.0222 
     26 CB        -69.4911   27.2895  -74.4958 C.3       9 UNK        -0.1966 
     27 N         -70.4900   27.8635  -76.6488 N.am      9 UNK        -0.4218 
     28 C         -70.3067   28.2567  -77.9172 C.2       9 UNK         0.5020 
     29 O         -69.4940   29.1171  -78.2587 O.2       9 UNK        -0.5274 
     30 CA        -71.1684   27.5722  -78.9962 C.3       8 UNK         0.0270 
     31 CB        -70.4419   26.3401  -79.5604 C.3       8 UNK        -0.1976 
     32 N         -72.4947   27.1741  -78.5157 N.am      8 UNK        -0.4313 
     33 C         -73.4766   28.0304  -78.2013 C.2       8 UNK         0.5041 
     34 O         -73.3935   29.2484  -78.3555 O.2       8 UNK        -0.5577 
     35 CA        -74.7598   27.4409  -77.5837 C.3       7 UNK         0.0284 
     36 CB        -75.8404   27.2564  -78.6608 C.3       7 UNK        -0.1958 
     37 N         -74.5726   26.1835  -76.8454 N.am      7 UNK        -0.4454 
     38 C         -73.7453   26.0059  -75.8055 C.2       7 UNK         0.5089 
     39 O         -73.0250   26.8918  -75.3406 O.2       7 UNK        -0.5125 
     40 CA        -73.7265   24.5932  -75.2083 C.3       6 UNK         0.0408 
     41 CB        -72.4787   24.3154  -74.3419 C.3       6 UNK        -0.1791 
     42 N         -74.9772   24.3183  -74.4963 N.am      6 UNK        -0.4762 
     43 C         -75.4027   24.8341  -73.3298 C.2       6 UNK         0.5007 
     44 O         -74.7246   25.5934  -72.6399 O.2       6 UNK        -0.5032 
     45 CA        -76.8219   24.4448  -72.8428 C.3       5 UNK         0.0783 
     46 C46       -77.6839   25.6908  -72.4993 C.3       11 UNK        -0.0857 
     47 S47       -77.6011   26.1473  -70.7345 S.3       11 UNK        -0.2512 
     48 C48       -76.6667   27.7106  -70.7655 C.3       11 UNK         0.0225 
     49 N         -77.5220   23.5742  -73.7938 N.am      5 UNK        -0.4615 
     50 C         -77.3365   22.2517  -73.9156 C.2       4 UNK         0.5053 
     51 O         -76.6123   21.5978  -73.1655 O.2       4 UNK        -0.5105 
     52 CA        -78.0457   21.5324  -75.0819 C.3       4 UNK         0.0263 
     53 CB        -79.2597   20.7453  -74.5618 C.3       4 UNK        -0.1981 
     54 N         -78.4845   22.4187  -76.1652 N.am      4 UNK        -0.4224 
     55 C         -77.6917   23.1913  -76.9230 C.2       3 UNK         0.4895 
     56 O         -76.4624   23.2006  -76.8460 O.2       3 UNK        -0.5091 
     57 CA        -78.3894   24.1763  -77.8799 C.3       3 UNK         0.0250 
     58 CB        -78.4898   23.5751  -79.2903 C.3       3 UNK        -0.1996 
     59 N         -79.7188   24.6312  -77.4439 N.am      3 UNK        -0.4254 
     60 C         -79.9974   25.2131  -76.2675 C.2       2 UNK         0.5004 
     61 O         -79.1555   25.4060  -75.3851 O.2       2 UNK        -0.5226 
     62 CA        -81.4626   25.5960  -76.0159 C.3       2 UNK         0.0269 
     63 CB        -82.3833   24.3585  -76.0577 C.3       2 UNK        -0.1926 
     64 N         -81.5537   26.2298  -74.7039 N.am      2 UNK        -0.4687 
     65 C         -82.5455   27.0072  -74.2548 C.2       1 UNK         0.5165 
     66 O         -83.5176   27.3325  -74.9383 O.2       1 UNK        -0.5079 
     67 H67       -80.3007   24.0241  -71.2793 H         1 UNK         0.0900 
     68 H68       -81.5105   23.9794  -69.9937 H         1 UNK         0.0900 
     69 H69       -80.3777   25.3230  -70.0789 H         1 UNK         0.0900 
     70 H70       -80.7410   27.0265  -71.6314 H         1 UNK         0.2959 
     71 H71       -83.4583   27.4586  -72.3876 H         1 UNK         0.1079 
     72 H72       -81.0117   29.0736  -73.2353 H         1 UNK         0.0837 
     73 H73       -82.6698   29.6110  -73.3044 H         1 UNK         0.0837 
     74 H74       -80.9561   31.7089  -71.7887 H         1 UNK         0.0685 
     75 H75       -80.4218   31.3279  -70.1702 H         1 UNK         0.0685 
     76 H76       -78.9846   28.9708  -70.0664 H         1 UNK         0.1434 
     77 H77       -75.9876   28.8742  -73.1265 H         1 UNK         0.1329 
     78 H78       -79.2627   31.6253  -73.4222 H         1 UNK         0.1335 
     79 H79       -76.9305   30.0523  -75.4533 H         1 UNK         0.0680 
     80 H80       -77.6899   31.5881  -75.1545 H         1 UNK         0.0680 
     81 H81       -74.0322   30.5357  -76.0880 H         1 UNK         0.1032 
     82 H82       -74.7478   29.3887  -74.9936 H         1 UNK         0.1032 
     83 H83       -72.5299   31.3073  -74.1459 H         1 UNK         0.0461 
     84 H84       -73.2495   28.0395  -71.6958 H         1 UNK         0.3453 
     85 H85       -73.0292   27.7902  -73.4089 H         1 UNK         0.3453 
     86 H86       -72.3154   28.7215  -75.5051 H         1 UNK         0.2984 
     87 H87       -68.8426   28.8645  -75.7994 H         1 UNK         0.0554 
     88 H88       -68.8776   26.5137  -74.9542 H         1 UNK         0.0847 
     89 H89       -70.4047   26.8212  -74.1264 H         1 UNK         0.0847 
     90 H90       -68.9448   27.6634  -73.6287 H         1 UNK         0.0847 
     91 H91       -71.2120   27.1822  -76.4502 H         1 UNK         0.3141 
     92 H92       -71.3052   28.2883  -79.8096 H         1 UNK         0.0743 
     93 H93       -69.4600   26.6121  -79.9507 H         1 UNK         0.0784 
     94 H94       -70.2882   25.5749  -78.7983 H         1 UNK         0.0784 
     95 H95       -71.0007   25.8907  -80.3816 H         1 UNK         0.0784 
     96 H96       -72.6599   26.1868  -78.3843 H         1 UNK         0.3213 
     97 H97       -75.1328   28.1785  -76.8734 H         1 UNK         0.0855 
     98 H98       -75.9220   28.1427  -79.2923 H         1 UNK         0.0814 
     99 H99       -76.8200   27.1052  -78.2098 H         1 UNK         0.0814 
    100 H100      -75.6264   26.4098  -79.3143 H         1 UNK         0.0814 
    101 H101      -75.1309   25.3940  -77.1417 H         1 UNK         0.3105 
    102 H102      -73.6951   23.8939  -76.0452 H         1 UNK         0.0547 
    103 H103      -71.5695   24.4039  -74.9375 H         1 UNK         0.0837 
    104 H104      -72.3826   25.0155  -73.5119 H         1 UNK         0.0837 
    105 H105      -72.4994   23.3073  -73.9289 H         1 UNK         0.0837 
    106 H106      -75.6302   23.7378  -75.0117 H         1 UNK         0.3020 
    107 H107      -76.6729   23.8662  -71.9281 H         1 UNK         0.1245 
    108 H108      -78.7369   25.4866  -72.6952 H         1 UNK         0.0781 
    109 H109      -77.4413   26.5399  -73.1401 H         1 UNK         0.0781 
    110 H110      -75.6812   27.5369  -71.1978 H         1 UNK         0.0836 
    111 H111      -76.4921   28.0356  -69.7391 H         1 UNK         0.0836 
    112 H112      -78.1279   24.0540  -74.4543 H         1 UNK         0.3022 
    113 H113      -77.3306   20.8244  -75.5059 H         1 UNK         0.0747 
    114 H114      -78.9665   20.0492  -73.7744 H         1 UNK         0.0793 
    115 H115      -79.7218   20.1565  -75.3545 H         1 UNK         0.0793 
    116 H116      -80.0208   21.4064  -74.1449 H         1 UNK         0.0793 
    117 H117      -79.4810   22.4915  -76.3078 H         1 UNK         0.3047 
    118 H118      -77.7539   25.0594  -77.9329 H         1 UNK         0.0822 
    119 H119      -79.1495   22.7067  -79.3136 H         1 UNK         0.0807 
    120 H120      -77.5112   23.2506  -79.6478 H         1 UNK         0.0807 
    121 H121      -78.8670   24.3043  -80.0076 H         1 UNK         0.0807 
    122 H122      -80.4705   24.5042  -78.1067 H         1 UNK         0.2946 
    123 H123      -81.7637   26.3132  -76.7828 H         1 UNK         0.1144 
    124 H124      -83.4216   24.6285  -75.8640 H         1 UNK         0.0793 
    125 H125      -82.0914   23.6164  -75.3133 H         1 UNK         0.0793 
    126 H126      -82.3619   23.8727  -77.0336 H         1 UNK         0.0793 
    127 H127      -80.7522   26.0610  -74.1090 H         1 UNK         0.2896 
@<TRIPOS>BOND
     1    1    2 1    
     2    1   67 1    
     3    1   68 1    
     4    1   69 1    
     5    2    3 2    
     6    2    4 am   BACKBONE|DICT|INTERRES
     7    4    5 1    
     8    4   70 1    
     9    5    6 1    
    10    5   65 1    
    11    5   71 1    
    12    6    7 1    
    13    6   72 1    
    14    6   73 1    
    15    7    8 1    
    16    8    9 1    
    17    8   74 1    
    18    8   75 1    
    19    9   10 ar   
    20    9   14 ar   
    21   10   11 ar   
    22   10   76 1    
    23   11   12 ar   
    24   11   48 1    
    25   12   13 ar   
    26   12   77 1    
    27   13   14 ar   
    28   13   15 1    
    29   14   78 1    
    30   15   16 1    
    31   15   79 1    
    32   15   80 1    
    33   16   17 1    
    34   17   18 1    
    35   17   81 1    
    36   17   82 1    
    37   18   19 1    
    38   18   22 1    
    39   18   83 1    
    40   19   20 am   BACKBONE|DICT|INTERRES
    41   19   21 2    
    42   20   84 1    
    43   20   85 1    
    44   22   23 am   BACKBONE|DICT|INTERRES
    45   22   86 1    
    46   23   24 2    
    47   23   25 1    
    48   25   26 1    
    49   25   27 1    
    50   25   87 1    
    51   26   88 1    
    52   26   89 1    
    53   26   90 1    
    54   27   28 am   BACKBONE|DICT|INTERRES
    55   27   91 1    
    56   28   29 2    
    57   28   30 1    
    58   30   31 1    
    59   30   32 1    
    60   30   92 1    
    61   31   93 1    
    62   31   94 1    
    63   31   95 1    
    64   32   33 am   BACKBONE|DICT|INTERRES
    65   32   96 1    
    66   33   34 2    
    67   33   35 1    
    68   35   36 1    
    69   35   37 1    
    70   35   97 1    
    71   36   98 1    
    72   36   99 1    
    73   36  100 1    
    74   37   38 am   BACKBONE|DICT|INTERRES
    75   37  101 1    
    76   38   39 2    
    77   38   40 1    
    78   40   41 1    
    79   40   42 1    
    80   40  102 1    
    81   41  103 1    
    82   41  104 1    
    83   41  105 1    
    84   42   43 am   BACKBONE|DICT|INTERRES
    85   42  106 1    
    86   43   44 2    
    87   43   45 1    
    88   45   46 1    
    89   45   49 1    
    90   45  107 1    
    91   46   47 1    
    92   46  108 1    
    93   46  109 1    
    94   47   48 1    
    95   48  110 1    
    96   48  111 1    
    97   49   50 am   BACKBONE|DICT|INTERRES
    98   49  112 1    
    99   50   51 2    
   100   50   52 1    
   101   52   53 1    
   102   52   54 1    
   103   52  113 1    
   104   53  114 1    
   105   53  115 1    
   106   53  116 1    
   107   54   55 am   BACKBONE|DICT|INTERRES
   108   54  117 1    
   109   55   56 2    
   110   55   57 1    
   111   57   58 1    
   112   57   59 1    
   113   57  118 1    
   114   58  119 1    
   115   58  120 1    
   116   58  121 1    
   117   59   60 am   BACKBONE|DICT|INTERRES
   118   59  122 1    
   119   60   61 2    
   120   60   62 1    
   121   62   63 1    
   122   62   64 1    
   123   62  123 1    
   124   63  124 1    
   125   63  125 1    
   126   63  126 1    
   127   64   65 am   BACKBONE|DICT|INTERRES
   128   64  127 1    
   129   65   66 2    
@<TRIPOS>SUBSTRUCTURE
     1 UNK         1 GROUP             0       ****    0 ROOT    
