@<TRIPOS>MOLECULE
3R135
127   129    1
SMALL
USER_CHARGES


@<TRIPOS>ATOM
      1 CA        -83.7185   23.6125  -74.1860 C.3       0 UNK        -0.1998 
      2 C         -82.9674   24.7882  -74.7913 C.2       0 UNK         0.4909 
      3 O         -82.9474   24.9359  -76.0138 O.2       0 UNK        -0.5240 
      4 N         -82.3409   25.6189  -73.9459 N.am      1 UNK        -0.4739 
      5 CA        -81.5405   26.7897  -74.3244 C.3       1 UNK         0.0864 
      6 C6        -81.0795   27.5737  -73.0666 C.3       11 UNK        -0.0881 
      7 S7        -80.7924   29.3431  -73.4036 S.3       11 UNK        -0.2682 
      8 C8        -80.0331   29.9001  -71.8407 C.3       11 UNK         0.0289 
      9 C9        -78.5788   29.4632  -71.7214 C.ar      11 UNK        -0.0687 
     10 C10       -78.2448   28.3027  -71.0190 C.ar      11 UNK        -0.0823 
     11 C11       -76.9168   27.8717  -70.9439 C.ar      11 UNK        -0.0830 
     12 C12       -75.9145   28.6192  -71.5689 C.ar      11 UNK        -0.1021 
     13 C13       -76.2306   29.8012  -72.2481 C.ar      11 UNK        -0.0753 
     14 C14       -77.5640   30.2196  -72.3153 C.ar      11 UNK        -0.0933 
     15 C15       -75.1491   30.5959  -72.9675 C.3       11 UNK         0.0166 
     16 S16       -74.1876   31.6555  -71.8431 S.3       11 UNK        -0.2615 
     17 C17       -72.7350   30.6090  -71.4700 C.3       11 UNK        -0.0865 
     18 CA        -71.5387   30.8865  -72.4228 C.3       10 UNK         0.0862 
     19 C         -70.2250   30.2229  -71.9102 C.2       10 UNK         0.5551 
     20 N         -69.5093   29.4345  -72.7050 N.am      10 UNK        -0.7319 
     21 O         -69.8386   30.4378  -70.7640 O.2       10 UNK        -0.5018 
     22 N         -71.8725   30.5389  -73.8127 N.am      10 UNK        -0.4509 
     23 C         -71.3950   31.1473  -74.9036 C.2       10 UNK         0.4899 
     24 O         -70.6543   32.1313  -74.8728 O.2       10 UNK        -0.4839 
     25 CA        -71.8224   30.5376  -76.2556 C.3       9 UNK         0.0222 
     26 CB        -70.9098   30.9725  -77.4218 C.3       9 UNK        -0.1966 
     27 N         -71.9595   29.0729  -76.2252 N.am      9 UNK        -0.4218 
     28 C         -71.0048   28.1774  -75.9149 C.2       9 UNK         0.5020 
     29 O         -69.8685   28.4955  -75.5608 O.2       9 UNK        -0.5274 
     30 CA        -71.3639   26.6776  -75.9583 C.3       8 UNK         0.0270 
     31 CB        -71.2832   26.0708  -74.5466 C.3       8 UNK        -0.1976 
     32 N         -72.6881   26.4014  -76.5220 N.am      8 UNK        -0.4313 
     33 C         -72.9910   26.4534  -77.8295 C.2       8 UNK         0.5041 
     34 O         -72.1532   26.6423  -78.7118 O.2       8 UNK        -0.5577 
     35 CA        -74.4757   26.3086  -78.2299 C.3       7 UNK         0.0284 
     36 CB        -74.7551   24.8946  -78.7634 C.3       7 UNK        -0.1958 
     37 N         -75.4166   26.6041  -77.1450 N.am      7 UNK        -0.4454 
     38 C         -75.5082   27.7742  -76.4975 C.2       7 UNK         0.5089 
     39 O         -74.8815   28.7835  -76.8211 O.2       7 UNK        -0.5125 
     40 CA        -76.3568   27.8024  -75.2159 C.3       6 UNK         0.0408 
     41 CB        -77.6103   28.6712  -75.3863 C.3       6 UNK        -0.1791 
     42 N         -76.6840   26.4797  -74.6529 N.am      6 UNK        -0.4762 
     43 C         -75.7502   25.6702  -74.1222 C.2       6 UNK         0.5007 
     44 O         -74.5460   25.9232  -74.1932 O.2       6 UNK        -0.5032 
     45 CA        -76.1663   24.3616  -73.4276 C.3       5 UNK         0.0783 
     46 C46       -75.9218   24.4203  -71.8906 C.3       11 UNK        -0.0857 
     47 S47       -77.3009   25.1219  -70.9122 S.3       11 UNK        -0.2512 
     48 C48       -76.5742   26.6133  -70.1605 C.3       11 UNK         0.0225 
     49 N         -77.5051   23.8788  -73.7847 N.am      5 UNK        -0.4615 
     50 C         -77.8920   22.6086  -73.6069 C.2       4 UNK         0.5053 
     51 O         -77.1234   21.6929  -73.3104 O.2       4 UNK        -0.5105 
     52 CA        -79.3880   22.3066  -73.7540 C.3       4 UNK         0.0263 
     53 CB        -80.1994   22.9972  -72.6433 C.3       4 UNK        -0.1981 
     54 N         -79.8840   22.7189  -75.0644 N.am      4 UNK        -0.4224 
     55 C         -79.9980   21.9055  -76.1247 C.2       3 UNK         0.4895 
     56 O         -79.7109   20.7080  -76.1020 O.2       3 UNK        -0.5091 
     57 CA        -80.5379   22.5103  -77.4344 C.3       3 UNK         0.0250 
     58 CB        -81.9813   22.0472  -77.6931 C.3       3 UNK        -0.1996 
     59 N         -80.4891   23.9741  -77.4482 N.am      3 UNK        -0.4254 
     60 C         -79.3749   24.6774  -77.6935 C.2       2 UNK         0.5004 
     61 O         -78.2969   24.1686  -77.9999 O.2       2 UNK        -0.5226 
     62 CA        -79.4537   26.2027  -77.5280 C.3       2 UNK         0.0269 
     63 CB        -79.7592   26.8828  -78.8710 C.3       2 UNK        -0.1926 
     64 N         -80.4253   26.6472  -76.5197 N.am      2 UNK        -0.4687 
     65 C         -80.3518   26.3634  -75.2117 C.2       1 UNK         0.5165 
     66 O         -79.4206   25.7273  -74.7114 O.2       1 UNK        -0.5079 
     67 H67       -84.7397   23.5851  -74.5651 H         1 UNK         0.0900 
     68 H68       -83.7634   23.6737  -73.0989 H         1 UNK         0.0900 
     69 H69       -83.2296   22.6766  -74.4545 H         1 UNK         0.0900 
     70 H70       -82.3897   25.4312  -72.9549 H         1 UNK         0.2959 
     71 H71       -82.1976   27.4356  -74.9112 H         1 UNK         0.1079 
     72 H72       -80.1907   27.1238  -72.6214 H         1 UNK         0.0837 
     73 H73       -81.8499   27.5307  -72.2949 H         1 UNK         0.0837 
     74 H74       -80.6177   29.5301  -70.9969 H         1 UNK         0.0685 
     75 H75       -80.0893   30.9887  -71.7935 H         1 UNK         0.0685 
     76 H76       -79.0210   27.7212  -70.5405 H         1 UNK         0.1434 
     77 H77       -74.8905   28.2778  -71.5282 H         1 UNK         0.1329 
     78 H78       -77.8189   31.1200  -72.8573 H         1 UNK         0.1335 
     79 H79       -75.5991   31.2295  -73.7333 H         1 UNK         0.0680 
     80 H80       -74.4849   29.9174  -73.5004 H         1 UNK         0.0680 
     81 H81       -72.4549   30.8214  -70.4364 H         1 UNK         0.1032 
     82 H82       -73.0079   29.5540  -71.4900 H         1 UNK         0.1032 
     83 H83       -71.3446   31.9602  -72.3837 H         1 UNK         0.0461 
     84 H84       -69.7800   29.2643  -73.6667 H         1 UNK         0.3453 
     85 H85       -68.6614   29.0239  -72.3482 H         1 UNK         0.3453 
     86 H86       -72.4431   29.7180  -73.9399 H         1 UNK         0.2984 
     87 H87       -72.8210   30.9276  -76.4577 H         1 UNK         0.0554 
     88 H88       -71.2454   30.5473  -78.3677 H         1 UNK         0.0847 
     89 H89       -69.8760   30.6634  -77.2632 H         1 UNK         0.0847 
     90 H90       -70.9105   32.0570  -77.5378 H         1 UNK         0.0847 
     91 H91       -72.8789   28.7277  -76.4841 H         1 UNK         0.3141 
     92 H92       -70.6157   26.1845  -76.5824 H         1 UNK         0.0743 
     93 H93       -70.2772   26.1677  -74.1359 H         1 UNK         0.0784 
     94 H94       -71.9640   26.5667  -73.8537 H         1 UNK         0.0784 
     95 H95       -71.5275   25.0084  -74.5543 H         1 UNK         0.0784 
     96 H96       -73.4301   26.2269  -75.8497 H         1 UNK         0.3213 
     97 H97       -74.6642   27.0240  -79.0332 H         1 UNK         0.0855 
     98 H98       -74.6104   24.1358  -77.9934 H         1 UNK         0.0814 
     99 H99       -74.0881   24.6505  -79.5916 H         1 UNK         0.0814 
    100 H100      -75.7760   24.8048  -79.1357 H         1 UNK         0.0814 
    101 H101      -75.9595   25.8288  -76.7929 H         1 UNK         0.3105 
    102 H102      -75.7358   28.2909  -74.4689 H         1 UNK         0.0547 
    103 H103      -78.2810   28.5609  -74.5375 H         1 UNK         0.0837 
    104 H104      -77.3350   29.7248  -75.4431 H         1 UNK         0.0837 
    105 H105      -78.1668   28.4497  -76.2929 H         1 UNK         0.0837 
    106 H106      -77.6687   26.2382  -74.5847 H         1 UNK         0.3020 
    107 H107      -75.4602   23.6303  -73.8288 H         1 UNK         0.1245 
    108 H108      -74.9890   24.9370  -71.6577 H         1 UNK         0.0781 
    109 H109      -75.7725   23.4043  -71.5225 H         1 UNK         0.0781 
    110 H110      -75.4959   26.4977  -70.0439 H         1 UNK         0.0836 
    111 H111      -76.9725   26.7168  -69.1502 H         1 UNK         0.0836 
    112 H112      -78.2000   24.5770  -74.0347 H         1 UNK         0.3022 
    113 H113      -79.5223   21.2296  -73.6304 H         1 UNK         0.0747 
    114 H114      -81.2506   22.7149  -72.6887 H         1 UNK         0.0793 
    115 H115      -79.8310   22.7073  -71.6582 H         1 UNK         0.0793 
    116 H116      -80.1384   24.0840  -72.7006 H         1 UNK         0.0793 
    117 H117      -80.0704   23.7050  -75.1866 H         1 UNK         0.3047 
    118 H118      -79.9144   22.1311  -78.2472 H         1 UNK         0.0822 
    119 H119      -82.0389   20.9589  -77.7423 H         1 UNK         0.0807 
    120 H120      -82.3577   22.4333  -78.6405 H         1 UNK         0.0807 
    121 H121      -82.6608   22.3725  -76.9056 H         1 UNK         0.0807 
    122 H122      -81.3356   24.4639  -77.1719 H         1 UNK         0.2946 
    123 H123      -78.4588   26.5106  -77.2102 H         1 UNK         0.1144 
    124 H124      -79.0395   26.5819  -79.6339 H         1 UNK         0.0793 
    125 H125      -79.7042   27.9684  -78.7873 H         1 UNK         0.0793 
    126 H126      -80.7526   26.6226  -79.2386 H         1 UNK         0.0793 
    127 H127      -81.2423   27.1313  -76.8651 H         1 UNK         0.2896 
@<TRIPOS>BOND
     1    1    2 1    
     2    1   67 1    
     3    1   68 1    
     4    1   69 1    
     5    2    3 2    
     6    2    4 am   BACKBONE|DICT|INTERRES
     7    4    5 1    
     8    4   70 1    
     9    5    6 1    
    10    5   65 1    
    11    5   71 1    
    12    6    7 1    
    13    6   72 1    
    14    6   73 1    
    15    7    8 1    
    16    8    9 1    
    17    8   74 1    
    18    8   75 1    
    19    9   10 ar   
    20    9   14 ar   
    21   10   11 ar   
    22   10   76 1    
    23   11   12 ar   
    24   11   48 1    
    25   12   13 ar   
    26   12   77 1    
    27   13   14 ar   
    28   13   15 1    
    29   14   78 1    
    30   15   16 1    
    31   15   79 1    
    32   15   80 1    
    33   16   17 1    
    34   17   18 1    
    35   17   81 1    
    36   17   82 1    
    37   18   19 1    
    38   18   22 1    
    39   18   83 1    
    40   19   20 am   BACKBONE|DICT|INTERRES
    41   19   21 2    
    42   20   84 1    
    43   20   85 1    
    44   22   23 am   BACKBONE|DICT|INTERRES
    45   22   86 1    
    46   23   24 2    
    47   23   25 1    
    48   25   26 1    
    49   25   27 1    
    50   25   87 1    
    51   26   88 1    
    52   26   89 1    
    53   26   90 1    
    54   27   28 am   BACKBONE|DICT|INTERRES
    55   27   91 1    
    56   28   29 2    
    57   28   30 1    
    58   30   31 1    
    59   30   32 1    
    60   30   92 1    
    61   31   93 1    
    62   31   94 1    
    63   31   95 1    
    64   32   33 am   BACKBONE|DICT|INTERRES
    65   32   96 1    
    66   33   34 2    
    67   33   35 1    
    68   35   36 1    
    69   35   37 1    
    70   35   97 1    
    71   36   98 1    
    72   36   99 1    
    73   36  100 1    
    74   37   38 am   BACKBONE|DICT|INTERRES
    75   37  101 1    
    76   38   39 2    
    77   38   40 1    
    78   40   41 1    
    79   40   42 1    
    80   40  102 1    
    81   41  103 1    
    82   41  104 1    
    83   41  105 1    
    84   42   43 am   BACKBONE|DICT|INTERRES
    85   42  106 1    
    86   43   44 2    
    87   43   45 1    
    88   45   46 1    
    89   45   49 1    
    90   45  107 1    
    91   46   47 1    
    92   46  108 1    
    93   46  109 1    
    94   47   48 1    
    95   48  110 1    
    96   48  111 1    
    97   49   50 am   BACKBONE|DICT|INTERRES
    98   49  112 1    
    99   50   51 2    
   100   50   52 1    
   101   52   53 1    
   102   52   54 1    
   103   52  113 1    
   104   53  114 1    
   105   53  115 1    
   106   53  116 1    
   107   54   55 am   BACKBONE|DICT|INTERRES
   108   54  117 1    
   109   55   56 2    
   110   55   57 1    
   111   57   58 1    
   112   57   59 1    
   113   57  118 1    
   114   58  119 1    
   115   58  120 1    
   116   58  121 1    
   117   59   60 am   BACKBONE|DICT|INTERRES
   118   59  122 1    
   119   60   61 2    
   120   60   62 1    
   121   62   63 1    
   122   62   64 1    
   123   62  123 1    
   124   63  124 1    
   125   63  125 1    
   126   63  126 1    
   127   64   65 am   BACKBONE|DICT|INTERRES
   128   64  127 1    
   129   65   66 2    
@<TRIPOS>SUBSTRUCTURE
     1 UNK         1 GROUP             0       ****    0 ROOT    
