@<TRIPOS>MOLECULE
3R135
127   129    1
SMALL
USER_CHARGES


@<TRIPOS>ATOM
      1 CA        -84.9442   26.4678  -70.9528 C.3       0 UNK        -0.1998 
      2 C         -84.4018   26.9313  -72.2964 C.2       0 UNK         0.4909 
      3 O         -85.1569   27.0123  -73.2657 O.2       0 UNK        -0.5240 
      4 N         -83.0991   27.2397  -72.3599 N.am      1 UNK        -0.4739 
      5 CA        -82.3984   27.6722  -73.5776 C.3       1 UNK         0.0864 
      6 C6        -81.0185   28.2891  -73.2371 C.3       11 UNK        -0.0881 
      7 S7        -80.4877   29.5547  -74.4384 S.3       11 UNK        -0.2682 
      8 C8        -79.4310   30.6148  -73.3999 C.3       11 UNK         0.0289 
      9 C9        -78.0941   29.9552  -73.0896 C.ar      11 UNK        -0.0687 
     10 C10       -77.9804   29.0500  -72.0303 C.ar      11 UNK        -0.0823 
     11 C11       -76.7581   28.4362  -71.7431 C.ar      11 UNK        -0.0830 
     12 C12       -75.6319   28.7651  -72.5042 C.ar      11 UNK        -0.1021 
     13 C13       -75.7306   29.6705  -73.5647 C.ar      11 UNK        -0.0753 
     14 C14       -76.9651   30.2587  -73.8555 C.ar      11 UNK        -0.0933 
     15 C15       -74.5127   29.9937  -74.4170 C.3       11 UNK         0.0166 
     16 S16       -73.8590   31.6545  -74.0565 S.3       11 UNK        -0.2615 
     17 C17       -73.0363   31.3847  -72.4476 C.3       11 UNK        -0.0865 
     18 CA        -71.5147   31.7147  -72.4830 C.3       10 UNK         0.0862 
     19 C         -70.8605   31.6636  -71.0674 C.2       10 UNK         0.5551 
     20 N         -69.5972   31.2768  -70.9372 N.am      10 UNK        -0.7319 
     21 O         -71.4933   32.0120  -70.0733 O.2       10 UNK        -0.5018 
     22 N         -70.7797   30.9823  -73.5336 N.am      10 UNK        -0.4509 
     23 C         -70.6314   29.6545  -73.6152 C.2       10 UNK         0.4899 
     24 O         -71.0755   28.8523  -72.7907 O.2       10 UNK        -0.4839 
     25 CA        -69.7999   29.1443  -74.8052 C.3       9 UNK         0.0222 
     26 CB        -68.3105   29.0750  -74.4294 C.3       9 UNK        -0.1966 
     27 N         -70.2473   27.8193  -75.2379 N.am      9 UNK        -0.4218 
     28 C         -71.3948   27.5846  -75.8867 C.2       9 UNK         0.5020 
     29 O         -72.1361   28.4787  -76.3023 O.2       9 UNK        -0.5274 
     30 CA        -71.7592   26.1031  -76.0940 C.3       8 UNK         0.0270 
     31 CB        -71.8930   25.3646  -74.7478 C.3       8 UNK        -0.1976 
     32 N         -73.0152   25.9696  -76.8353 N.am      8 UNK        -0.4313 
     33 C         -73.1092   25.9420  -78.1721 C.2       8 UNK         0.5041 
     34 O         -72.1286   25.9711  -78.9190 O.2       8 UNK        -0.5577 
     35 CA        -74.5110   25.8339  -78.8052 C.3       7 UNK         0.0284 
     36 CB        -74.6864   24.4638  -79.4816 C.3       7 UNK        -0.1958 
     37 N         -75.6063   26.0447  -77.8537 N.am      7 UNK        -0.4454 
     38 C         -76.0398   27.2515  -77.4613 C.2       7 UNK         0.5089 
     39 O         -75.6088   28.3108  -77.9173 O.2       7 UNK        -0.5125 
     40 CA        -77.1283   27.2993  -76.3718 C.3       6 UNK         0.0408 
     41 CB        -78.5228   27.4212  -77.0027 C.3       6 UNK        -0.1791 
     42 N         -77.1119   26.1759  -75.4278 N.am      6 UNK        -0.4762 
     43 C         -76.0816   25.8724  -74.6225 C.2       6 UNK         0.5007 
     44 O         -74.9857   26.4251  -74.6902 O.2       6 UNK        -0.5032 
     45 CA        -76.2849   24.7353  -73.6075 C.3       5 UNK         0.0783 
     46 C46       -77.0558   25.1997  -72.3431 C.3       11 UNK        -0.0857 
     47 S47       -75.9119   25.8446  -71.0728 S.3       11 UNK        -0.2512 
     48 C48       -76.6643   27.4366  -70.5961 C.3       11 UNK         0.0225 
     49 N         -76.9229   23.5927  -74.2630 N.am      5 UNK        -0.4615 
     50 C         -76.2599   22.5074  -74.6878 C.2       4 UNK         0.5053 
     51 O         -75.0631   22.3080  -74.4782 O.2       4 UNK        -0.5105 
     52 CA        -77.0498   21.4607  -75.4957 C.3       4 UNK         0.0263 
     53 CB        -77.5654   20.3476  -74.5693 C.3       4 UNK        -0.1981 
     54 N         -78.1737   22.0115  -76.2558 N.am      4 UNK        -0.4224 
     55 C         -78.0798   22.9479  -77.2107 C.2       3 UNK         0.4895 
     56 O         -77.0208   23.4506  -77.5830 O.2       3 UNK        -0.5091 
     57 CA        -79.4006   23.4505  -77.8148 C.3       3 UNK         0.0250 
     58 CB        -79.7952   22.5894  -79.0250 C.3       3 UNK        -0.1996 
     59 N         -80.5227   23.5087  -76.8684 N.am      3 UNK        -0.4254 
     60 C         -80.5267   24.1435  -75.6866 C.2       2 UNK         0.5004 
     61 O         -79.5407   24.6985  -75.1909 O.2       2 UNK        -0.5226 
     62 CA        -81.8446   24.0915  -74.8985 C.3       2 UNK         0.0269 
     63 CB        -81.8539   22.8716  -73.9630 C.3       2 UNK        -0.1926 
     64 N         -82.0520   25.3011  -74.1024 N.am      2 UNK        -0.4687 
     65 C         -82.2617   26.5273  -74.6047 C.2       1 UNK         0.5165 
     66 O         -82.3732   26.7644  -75.8088 O.2       1 UNK        -0.5079 
     67 H67       -84.1721   26.4521  -70.1838 H         1 UNK         0.0900 
     68 H68       -85.3551   25.4624  -71.0412 H         1 UNK         0.0900 
     69 H69       -85.7402   27.1333  -70.6199 H         1 UNK         0.0900 
     70 H70       -82.5335   27.1613  -71.5266 H         1 UNK         0.2959 
     71 H71       -83.0192   28.4440  -74.0393 H         1 UNK         0.1079 
     72 H72       -81.0736   28.7754  -72.2622 H         1 UNK         0.0837 
     73 H73       -80.2424   27.5255  -73.1486 H         1 UNK         0.0837 
     74 H74       -79.2670   31.5582  -73.9229 H         1 UNK         0.0685 
     75 H75       -79.9509   30.8713  -72.4757 H         1 UNK         0.0685 
     76 H76       -78.8482   28.8192  -71.4293 H         1 UNK         0.1434 
     77 H77       -74.6822   28.2950  -72.2871 H         1 UNK         0.1329 
     78 H78       -77.0434   30.9547  -74.6795 H         1 UNK         0.1335 
     79 H79       -73.7288   29.2495  -74.2688 H         1 UNK         0.0680 
     80 H80       -74.7854   29.9384  -75.4720 H         1 UNK         0.0680 
     81 H81       -73.1933   30.3598  -72.1096 H         1 UNK         0.1032 
     82 H82       -73.5471   32.0162  -71.7186 H         1 UNK         0.1032 
     83 H83       -71.4320   32.7635  -72.7705 H         1 UNK         0.0461 
     84 H84       -69.1775   31.2574  -70.0210 H         1 UNK         0.3453 
     85 H85       -69.0642   30.9977  -71.7446 H         1 UNK         0.3453 
     86 H86       -70.3605   31.5606  -74.2477 H         1 UNK         0.2984 
     87 H87       -69.9160   29.8372  -75.6416 H         1 UNK         0.0554 
     88 H88       -67.7044   28.7299  -75.2674 H         1 UNK         0.0847 
     89 H89       -68.1359   28.4021  -73.5887 H         1 UNK         0.0847 
     90 H90       -67.9321   30.0574  -74.1436 H         1 UNK         0.0847 
     91 H91       -69.7117   27.0321  -74.9024 H         1 UNK         0.3141 
     92 H92       -70.9546   25.6322  -76.6629 H         1 UNK         0.0743 
     93 H93       -72.5337   25.9051  -74.0500 H         1 UNK         0.0784 
     94 H94       -72.3095   24.3653  -74.8785 H         1 UNK         0.0784 
     95 H95       -70.9231   25.2456  -74.2643 H         1 UNK         0.0784 
     96 H96       -73.8627   26.0536  -76.2812 H         1 UNK         0.3213 
     97 H97       -74.5719   26.5990  -79.5823 H         1 UNK         0.0855 
     98 H98       -74.5897   23.6468  -78.7654 H         1 UNK         0.0814 
     99 H99       -73.9325   24.3093  -80.2546 H         1 UNK         0.0814 
    100 H100      -75.6623   24.3775  -79.9596 H         1 UNK         0.0814 
    101 H101      -76.0487   25.2117  -77.4752 H         1 UNK         0.3105 
    102 H102      -76.9528   28.2011  -75.7845 H         1 UNK         0.0547 
    103 H103      -78.6059   28.3405  -77.5836 H         1 UNK         0.0837 
    104 H104      -78.7345   26.5929  -77.6756 H         1 UNK         0.0837 
    105 H105      -79.3056   27.4452  -76.2446 H         1 UNK         0.0837 
    106 H106      -77.9834   25.6587  -75.3283 H         1 UNK         0.3020 
    107 H107      -75.2831   24.4346  -73.2907 H         1 UNK         0.1245 
    108 H108      -77.5767   24.3548  -71.8897 H         1 UNK         0.0781 
    109 H109      -77.8324   25.9296  -72.5812 H         1 UNK         0.0781 
    110 H110      -76.0676   27.8792  -69.7975 H         1 UNK         0.0836 
    111 H111      -77.6485   27.2391  -70.1684 H         1 UNK         0.0836 
    112 H112      -77.8980   23.7077  -74.5175 H         1 UNK         0.3022 
    113 H113      -76.3574   21.0169  -76.2142 H         1 UNK         0.0747 
    114 H114      -78.0427   19.5476  -75.1356 H         1 UNK         0.0793 
    115 H115      -76.7462   19.8980  -74.0060 H         1 UNK         0.0793 
    116 H116      -78.2884   20.7270  -73.8459 H         1 UNK         0.0793 
    117 H117      -79.0932   21.6703  -76.0175 H         1 UNK         0.3047 
    118 H118      -79.2258   24.4649  -78.1723 H         1 UNK         0.0822 
    119 H119      -80.6647   22.9997  -79.5389 H         1 UNK         0.0807 
    120 H120      -80.0284   21.5642  -78.7344 H         1 UNK         0.0807 
    121 H121      -78.9839   22.5450  -79.7534 H         1 UNK         0.0807 
    122 H122      -81.3764   23.0630  -77.1731 H         1 UNK         0.2946 
    123 H123      -82.6751   24.0073  -75.6033 H         1 UNK         0.1144 
    124 H124      -82.7923   22.8004  -73.4126 H         1 UNK         0.0793 
    125 H125      -81.0408   22.9139  -73.2365 H         1 UNK         0.0793 
    126 H126      -81.7403   21.9437  -74.5251 H         1 UNK         0.0793 
    127 H127      -81.9694   25.2049  -73.1015 H         1 UNK         0.2896 
@<TRIPOS>BOND
     1    1    2 1    
     2    1   67 1    
     3    1   68 1    
     4    1   69 1    
     5    2    3 2    
     6    2    4 am   BACKBONE|DICT|INTERRES
     7    4    5 1    
     8    4   70 1    
     9    5    6 1    
    10    5   65 1    
    11    5   71 1    
    12    6    7 1    
    13    6   72 1    
    14    6   73 1    
    15    7    8 1    
    16    8    9 1    
    17    8   74 1    
    18    8   75 1    
    19    9   10 ar   
    20    9   14 ar   
    21   10   11 ar   
    22   10   76 1    
    23   11   12 ar   
    24   11   48 1    
    25   12   13 ar   
    26   12   77 1    
    27   13   14 ar   
    28   13   15 1    
    29   14   78 1    
    30   15   16 1    
    31   15   79 1    
    32   15   80 1    
    33   16   17 1    
    34   17   18 1    
    35   17   81 1    
    36   17   82 1    
    37   18   19 1    
    38   18   22 1    
    39   18   83 1    
    40   19   20 am   BACKBONE|DICT|INTERRES
    41   19   21 2    
    42   20   84 1    
    43   20   85 1    
    44   22   23 am   BACKBONE|DICT|INTERRES
    45   22   86 1    
    46   23   24 2    
    47   23   25 1    
    48   25   26 1    
    49   25   27 1    
    50   25   87 1    
    51   26   88 1    
    52   26   89 1    
    53   26   90 1    
    54   27   28 am   BACKBONE|DICT|INTERRES
    55   27   91 1    
    56   28   29 2    
    57   28   30 1    
    58   30   31 1    
    59   30   32 1    
    60   30   92 1    
    61   31   93 1    
    62   31   94 1    
    63   31   95 1    
    64   32   33 am   BACKBONE|DICT|INTERRES
    65   32   96 1    
    66   33   34 2    
    67   33   35 1    
    68   35   36 1    
    69   35   37 1    
    70   35   97 1    
    71   36   98 1    
    72   36   99 1    
    73   36  100 1    
    74   37   38 am   BACKBONE|DICT|INTERRES
    75   37  101 1    
    76   38   39 2    
    77   38   40 1    
    78   40   41 1    
    79   40   42 1    
    80   40  102 1    
    81   41  103 1    
    82   41  104 1    
    83   41  105 1    
    84   42   43 am   BACKBONE|DICT|INTERRES
    85   42  106 1    
    86   43   44 2    
    87   43   45 1    
    88   45   46 1    
    89   45   49 1    
    90   45  107 1    
    91   46   47 1    
    92   46  108 1    
    93   46  109 1    
    94   47   48 1    
    95   48  110 1    
    96   48  111 1    
    97   49   50 am   BACKBONE|DICT|INTERRES
    98   49  112 1    
    99   50   51 2    
   100   50   52 1    
   101   52   53 1    
   102   52   54 1    
   103   52  113 1    
   104   53  114 1    
   105   53  115 1    
   106   53  116 1    
   107   54   55 am   BACKBONE|DICT|INTERRES
   108   54  117 1    
   109   55   56 2    
   110   55   57 1    
   111   57   58 1    
   112   57   59 1    
   113   57  118 1    
   114   58  119 1    
   115   58  120 1    
   116   58  121 1    
   117   59   60 am   BACKBONE|DICT|INTERRES
   118   59  122 1    
   119   60   61 2    
   120   60   62 1    
   121   62   63 1    
   122   62   64 1    
   123   62  123 1    
   124   63  124 1    
   125   63  125 1    
   126   63  126 1    
   127   64   65 am   BACKBONE|DICT|INTERRES
   128   64  127 1    
   129   65   66 2    
@<TRIPOS>SUBSTRUCTURE
     1 UNK         1 GROUP             0       ****    0 ROOT    
