@<TRIPOS>MOLECULE
3R135
127   129    1
SMALL
USER_CHARGES


@<TRIPOS>ATOM
      1 CA        -85.3883   27.7794  -73.0148 C.3       0 UNK        -0.1998 
      2 C         -83.8705   27.8046  -72.9167 C.2       0 UNK         0.4909 
      3 O         -83.2609   28.8518  -73.1324 O.2       0 UNK        -0.5240 
      4 N         -83.2553   26.6570  -72.5981 N.am      1 UNK        -0.4739 
      5 CA        -81.7996   26.4923  -72.4655 C.3       1 UNK         0.0864 
      6 C6        -81.4657   25.4208  -71.3939 C.3       11 UNK        -0.0881 
      7 S7        -79.8244   25.5166  -70.5863 S.3       11 UNK        -0.2682 
      8 C8        -79.6087   27.2555  -70.0636 C.3       11 UNK         0.0289 
      9 C9        -78.5357   27.9500  -70.8955 C.ar      11 UNK        -0.0687 
     10 C10       -78.8826   28.7827  -71.9635 C.ar      11 UNK        -0.0823 
     11 C11       -77.8992   29.3460  -72.7831 C.ar      11 UNK        -0.0830 
     12 C12       -76.5529   29.1058  -72.5013 C.ar      11 UNK        -0.1021 
     13 C13       -76.1890   28.3133  -71.4088 C.ar      11 UNK        -0.0753 
     14 C14       -77.1824   27.7400  -70.6083 C.ar      11 UNK        -0.0933 
     15 C15       -74.7195   28.0691  -71.1142 C.3       11 UNK         0.0166 
     16 S16       -73.9596   29.5493  -70.3794 S.3       11 UNK        -0.2615 
     17 C17       -72.1863   29.2112  -70.6346 C.3       11 UNK        -0.0865 
     18 CA        -71.6241   29.9522  -71.8762 C.3       10 UNK         0.0862 
     19 C         -70.0784   29.8305  -71.9315 C.2       10 UNK         0.5551 
     20 N         -69.3558   30.9110  -71.6714 N.am      10 UNK        -0.7319 
     21 O         -69.5352   28.7517  -72.1591 O.2       10 UNK        -0.5018 
     22 N         -72.2429   29.4610  -73.1139 N.am      10 UNK        -0.4509 
     23 C         -72.1803   30.0597  -74.3095 C.2       10 UNK         0.4899 
     24 O         -71.6716   31.1666  -74.4942 O.2       10 UNK        -0.4839 
     25 CA        -72.8060   29.2866  -75.4915 C.3       9 UNK         0.0222 
     26 CB        -72.2810   29.7661  -76.8620 C.3       9 UNK        -0.1966 
     27 N         -72.6760   27.8280  -75.3542 N.am      9 UNK        -0.4218 
     28 C         -71.5327   27.1268  -75.2863 C.2       9 UNK         0.5020 
     29 O         -70.4097   27.6105  -75.4300 O.2       9 UNK        -0.5274 
     30 CA        -71.6640   25.6310  -74.9844 C.3       8 UNK         0.0270 
     31 CB        -72.0496   25.4022  -73.5109 C.3       8 UNK        -0.1976 
     32 N         -72.6486   24.9926  -75.8602 N.am      8 UNK        -0.4313 
     33 C         -72.3289   24.1860  -76.8799 C.2       8 UNK         0.5041 
     34 O         -71.1721   23.9413  -77.2272 O.2       8 UNK        -0.5577 
     35 CA        -73.4826   23.4932  -77.6188 C.3       7 UNK         0.0284 
     36 CB        -73.9488   22.2572  -76.8320 C.3       7 UNK        -0.1958 
     37 N         -74.6265   24.3638  -77.9033 N.am      7 UNK        -0.4454 
     38 C         -74.6318   25.2904  -78.8729 C.2       7 UNK         0.5089 
     39 O         -73.6390   25.5953  -79.5347 O.2       7 UNK        -0.5125 
     40 CA        -75.9793   25.9595  -79.1940 C.3       6 UNK         0.0408 
     41 CB        -76.9417   24.9654  -79.8650 C.3       6 UNK        -0.1791 
     42 N         -76.6179   26.5329  -78.0131 N.am      6 UNK        -0.4762 
     43 C         -76.2209   27.6596  -77.4039 C.2       6 UNK         0.5007 
     44 O         -75.3066   28.3758  -77.8089 O.2       6 UNK        -0.5032 
     45 CA        -76.9712   28.0405  -76.1101 C.3       5 UNK         0.0783 
     46 C46       -78.2485   28.8370  -76.4868 C.3       11 UNK        -0.0857 
     47 S47       -79.3674   29.3167  -75.1307 S.3       11 UNK        -0.2512 
     48 C48       -78.3017   30.2204  -73.9625 C.3       11 UNK         0.0225 
     49 N         -77.2147   26.8593  -75.2693 N.am      5 UNK        -0.4615 
     50 C         -76.2359   26.0757  -74.7862 C.2       4 UNK         0.5053 
     51 O         -75.0363   26.3297  -74.9085 O.2       4 UNK        -0.5105 
     52 CA        -76.6356   24.7582  -74.1103 C.3       4 UNK         0.0263 
     53 CB        -76.8078   24.9519  -72.6023 C.3       4 UNK        -0.1981 
     54 N         -77.8581   24.1957  -74.6811 N.am      4 UNK        -0.4224 
     55 C         -77.9021   23.5316  -75.8439 C.2       3 UNK         0.4895 
     56 O         -76.9152   23.3180  -76.5460 O.2       3 UNK        -0.5091 
     57 CA        -79.2832   23.0636  -76.3303 C.3       3 UNK         0.0250 
     58 CB        -79.6934   21.7591  -75.6290 C.3       3 UNK        -0.1996 
     59 N         -80.3234   24.0751  -76.1388 N.am      3 UNK        -0.4254 
     60 C         -80.3216   25.2787  -76.7271 C.2       2 UNK         0.5004 
     61 O         -79.4685   25.6459  -77.5361 O.2       2 UNK        -0.5226 
     62 CA        -81.4397   26.2515  -76.3207 C.3       2 UNK         0.0269 
     63 CB        -82.6593   26.0773  -77.2396 C.3       2 UNK        -0.1926 
     64 N         -81.8768   26.1793  -74.9187 N.am      2 UNK        -0.4687 
     65 C         -81.0964   26.2594  -73.8270 C.2       1 UNK         0.5165 
     66 O         -79.8693   26.1800  -73.8724 O.2       1 UNK        -0.5079 
     67 H67       -85.7956   26.7915  -72.7999 H         1 UNK         0.0900 
     68 H68       -85.7044   28.0660  -74.0176 H         1 UNK         0.0900 
     69 H69       -85.8211   28.4854  -72.3064 H         1 UNK         0.0900 
     70 H70       -83.8090   25.8272  -72.4338 H         1 UNK         0.2959 
     71 H71       -81.4190   27.4444  -72.1097 H         1 UNK         0.1079 
     72 H72       -82.1931   25.4818  -70.5825 H         1 UNK         0.0837 
     73 H73       -81.5835   24.4187  -71.8102 H         1 UNK         0.0837 
     74 H74       -80.5535   27.7984  -70.0944 H         1 UNK         0.0685 
     75 H75       -79.3035   27.2611  -69.0162 H         1 UNK         0.0685 
     76 H76       -79.9197   28.9830  -72.1851 H         1 UNK         0.1434 
     77 H77       -75.7827   29.5427  -73.1218 H         1 UNK         0.1329 
     78 H78       -76.9050   27.1058  -69.7776 H         1 UNK         0.1335 
     79 H79       -74.5910   27.2229  -70.4373 H         1 UNK         0.0680 
     80 H80       -74.2141   27.8021  -72.0424 H         1 UNK         0.0680 
     81 H81       -72.0136   28.1353  -70.7048 H         1 UNK         0.1032 
     82 H82       -71.6646   29.5384  -69.7329 H         1 UNK         0.1032 
     83 H83       -71.8814   31.0094  -71.7794 H         1 UNK         0.0461 
     84 H84       -68.3500   30.8440  -71.6859 H         1 UNK         0.3453 
     85 H85       -69.7961   31.7976  -71.4790 H         1 UNK         0.3453 
     86 H86       -72.6481   28.5404  -73.0686 H         1 UNK         0.2984 
     87 H87       -73.8757   29.4963  -75.4586 H         1 UNK         0.0554 
     88 H88       -72.7163   29.1899  -77.6783 H         1 UNK         0.0847 
     89 H89       -71.1964   29.6817  -76.9344 H         1 UNK         0.0847 
     90 H90       -72.5368   30.8123  -77.0333 H         1 UNK         0.0847 
     91 H91       -73.5501   27.3198  -75.2244 H         1 UNK         0.3141 
     92 H92       -70.6785   25.1833  -75.1307 H         1 UNK         0.0743 
     93 H93       -73.0357   25.8001  -73.2721 H         1 UNK         0.0784 
     94 H94       -72.0546   24.3396  -73.2680 H         1 UNK         0.0784 
     95 H95       -71.3333   25.8826  -72.8424 H         1 UNK         0.0784 
     96 H96       -73.6253   25.1956  -75.6713 H         1 UNK         0.3213 
     97 H97       -73.0887   23.1409  -78.5751 H         1 UNK         0.0855 
     98 H98       -74.3665   22.5282  -75.8618 H         1 UNK         0.0814 
     99 H99       -73.1183   21.5737  -76.6497 H         1 UNK         0.0814 
    100 H100      -74.7100   21.7018  -77.3803 H         1 UNK         0.0814 
    101 H101      -75.4964   24.1415  -77.4224 H         1 UNK         0.3105 
    102 H102      -75.7897   26.7670  -79.9047 H         1 UNK         0.0547 
    103 H103      -76.4910   24.5248  -80.7552 H         1 UNK         0.0837 
    104 H104      -77.2150   24.1475  -79.1974 H         1 UNK         0.0837 
    105 H105      -77.8627   25.4580  -80.1774 H         1 UNK         0.0837 
    106 H106      -77.4252   26.0409  -77.6426 H         1 UNK         0.3020 
    107 H107      -76.3112   28.7000  -75.5447 H         1 UNK         0.1245 
    108 H108      -77.9697   29.7530  -77.0117 H         1 UNK         0.0781 
    109 H109      -78.8516   28.2676  -77.1961 H         1 UNK         0.0781 
    110 H110      -77.4312   30.6241  -74.4812 H         1 UNK         0.0836 
    111 H111      -78.8546   31.0805  -73.5827 H         1 UNK         0.0836 
    112 H112      -78.1800   26.6332  -75.0555 H         1 UNK         0.3022 
    113 H113      -75.8211   24.0469  -74.2634 H         1 UNK         0.0747 
    114 H114      -77.0671   24.0185  -72.1030 H         1 UNK         0.0793 
    115 H115      -75.8898   25.3250  -72.1471 H         1 UNK         0.0793 
    116 H116      -77.5949   25.6747  -72.3962 H         1 UNK         0.0793 
    117 H117      -78.7260   24.4452  -74.2207 H         1 UNK         0.3047 
    118 H118      -79.2045   22.8664  -77.4017 H         1 UNK         0.0822 
    119 H119      -80.6299   21.3708  -76.0297 H         1 UNK         0.0807 
    120 H120      -79.8188   21.8976  -74.5543 H         1 UNK         0.0807 
    121 H121      -78.9367   20.9862  -75.7719 H         1 UNK         0.0807 
    122 H122      -81.0607   23.8654  -75.4819 H         1 UNK         0.2946 
    123 H123      -81.0467   27.2576  -76.4749 H         1 UNK         0.1144 
    124 H124      -82.3710   26.1469  -78.2897 H         1 UNK         0.0793 
    125 H125      -83.4059   26.8513  -77.0605 H         1 UNK         0.0793 
    126 H126      -83.1377   25.1076  -77.0961 H         1 UNK         0.0793 
    127 H127      -82.8725   26.2396  -74.7646 H         1 UNK         0.2896 
@<TRIPOS>BOND
     1    1    2 1    
     2    1   67 1    
     3    1   68 1    
     4    1   69 1    
     5    2    3 2    
     6    2    4 am   BACKBONE|DICT|INTERRES
     7    4    5 1    
     8    4   70 1    
     9    5    6 1    
    10    5   65 1    
    11    5   71 1    
    12    6    7 1    
    13    6   72 1    
    14    6   73 1    
    15    7    8 1    
    16    8    9 1    
    17    8   74 1    
    18    8   75 1    
    19    9   10 ar   
    20    9   14 ar   
    21   10   11 ar   
    22   10   76 1    
    23   11   12 ar   
    24   11   48 1    
    25   12   13 ar   
    26   12   77 1    
    27   13   14 ar   
    28   13   15 1    
    29   14   78 1    
    30   15   16 1    
    31   15   79 1    
    32   15   80 1    
    33   16   17 1    
    34   17   18 1    
    35   17   81 1    
    36   17   82 1    
    37   18   19 1    
    38   18   22 1    
    39   18   83 1    
    40   19   20 am   BACKBONE|DICT|INTERRES
    41   19   21 2    
    42   20   84 1    
    43   20   85 1    
    44   22   23 am   BACKBONE|DICT|INTERRES
    45   22   86 1    
    46   23   24 2    
    47   23   25 1    
    48   25   26 1    
    49   25   27 1    
    50   25   87 1    
    51   26   88 1    
    52   26   89 1    
    53   26   90 1    
    54   27   28 am   BACKBONE|DICT|INTERRES
    55   27   91 1    
    56   28   29 2    
    57   28   30 1    
    58   30   31 1    
    59   30   32 1    
    60   30   92 1    
    61   31   93 1    
    62   31   94 1    
    63   31   95 1    
    64   32   33 am   BACKBONE|DICT|INTERRES
    65   32   96 1    
    66   33   34 2    
    67   33   35 1    
    68   35   36 1    
    69   35   37 1    
    70   35   97 1    
    71   36   98 1    
    72   36   99 1    
    73   36  100 1    
    74   37   38 am   BACKBONE|DICT|INTERRES
    75   37  101 1    
    76   38   39 2    
    77   38   40 1    
    78   40   41 1    
    79   40   42 1    
    80   40  102 1    
    81   41  103 1    
    82   41  104 1    
    83   41  105 1    
    84   42   43 am   BACKBONE|DICT|INTERRES
    85   42  106 1    
    86   43   44 2    
    87   43   45 1    
    88   45   46 1    
    89   45   49 1    
    90   45  107 1    
    91   46   47 1    
    92   46  108 1    
    93   46  109 1    
    94   47   48 1    
    95   48  110 1    
    96   48  111 1    
    97   49   50 am   BACKBONE|DICT|INTERRES
    98   49  112 1    
    99   50   51 2    
   100   50   52 1    
   101   52   53 1    
   102   52   54 1    
   103   52  113 1    
   104   53  114 1    
   105   53  115 1    
   106   53  116 1    
   107   54   55 am   BACKBONE|DICT|INTERRES
   108   54  117 1    
   109   55   56 2    
   110   55   57 1    
   111   57   58 1    
   112   57   59 1    
   113   57  118 1    
   114   58  119 1    
   115   58  120 1    
   116   58  121 1    
   117   59   60 am   BACKBONE|DICT|INTERRES
   118   59  122 1    
   119   60   61 2    
   120   60   62 1    
   121   62   63 1    
   122   62   64 1    
   123   62  123 1    
   124   63  124 1    
   125   63  125 1    
   126   63  126 1    
   127   64   65 am   BACKBONE|DICT|INTERRES
   128   64  127 1    
   129   65   66 2    
@<TRIPOS>SUBSTRUCTURE
     1 UNK         1 GROUP             0       ****    0 ROOT    
