@<TRIPOS>MOLECULE
3R135
127   129    1
SMALL
USER_CHARGES


@<TRIPOS>ATOM
      1 CA        -78.5081   30.7362  -75.7618 C.3       0 UNK        -0.1998 
      2 C         -78.9184   29.5992  -74.8385 C.2       0 UNK         0.4909 
      3 O         -78.1205   28.6969  -74.5954 O.2       0 UNK        -0.5240 
      4 N         -80.1486   29.6418  -74.3122 N.am      1 UNK        -0.4739 
      5 CA        -80.7105   28.5909  -73.4591 C.3       1 UNK         0.0864 
      6 C6        -81.8164   29.1566  -72.5309 C.3       11 UNK        -0.0881 
      7 S7        -82.0379   28.1690  -71.0112 S.3       11 UNK        -0.2682 
      8 C8        -80.9180   29.0143  -69.8453 C.3       11 UNK         0.0289 
      9 C9        -79.4603   28.8040  -70.2272 C.ar      11 UNK        -0.0687 
     10 C10       -78.8360   27.5828  -69.9550 C.ar      11 UNK        -0.0823 
     11 C11       -77.5171   27.3487  -70.3561 C.ar      11 UNK        -0.0830 
     12 C12       -76.8234   28.3612  -71.0297 C.ar      11 UNK        -0.1021 
     13 C13       -77.4361   29.5853  -71.3115 C.ar      11 UNK        -0.0753 
     14 C14       -78.7499   29.8090  -70.8914 C.ar      11 UNK        -0.0933 
     15 C15       -76.7006   30.6290  -72.1381 C.3       11 UNK         0.0166 
     16 S16       -75.2889   31.3496  -71.2481 S.3       11 UNK        -0.2615 
     17 C17       -74.5857   32.4509  -72.5305 C.3       11 UNK        -0.0865 
     18 CA        -74.0585   31.7232  -73.8014 C.3       10 UNK         0.0862 
     19 C         -73.4132   32.7254  -74.8020 C.2       10 UNK         0.5551 
     20 N         -72.1637   32.5460  -75.2125 N.am      10 UNK        -0.7319 
     21 O         -74.0633   33.6814  -75.2175 O.2       10 UNK        -0.5018 
     22 N         -73.2168   30.5648  -73.4591 N.am      10 UNK        -0.4509 
     23 C         -73.0907   29.4617  -74.2048 C.2       10 UNK         0.4899 
     24 O         -73.6109   29.3133  -75.3120 O.2       10 UNK        -0.4839 
     25 CA        -72.2726   28.3295  -73.5658 C.3       9 UNK         0.0222 
     26 CB        -73.0210   27.7531  -72.3521 C.3       9 UNK        -0.1966 
     27 N         -72.0363   27.2393  -74.5112 N.am      9 UNK        -0.4218 
     28 C         -70.9325   27.0876  -75.2513 C.2       9 UNK         0.5020 
     29 O         -69.9899   27.8812  -75.2397 O.2       9 UNK        -0.5274 
     30 CA        -70.8330   25.8327  -76.1321 C.3       8 UNK         0.0270 
     31 CB        -70.3517   24.6266  -75.3065 C.3       8 UNK        -0.1976 
     32 N         -72.0921   25.4940  -76.8032 N.am      8 UNK        -0.4313 
     33 C         -72.1821   25.1027  -78.0836 C.2       8 UNK         0.5041 
     34 O         -71.2104   25.0056  -78.8354 O.2       8 UNK        -0.5577 
     35 CA        -73.5732   24.7342  -78.6400 C.3       7 UNK         0.0284 
     36 CB        -73.7291   23.2064  -78.7192 C.3       7 UNK        -0.1958 
     37 N         -74.6932   25.2764  -77.8732 N.am      7 UNK        -0.4454 
     38 C         -74.9834   26.5749  -77.7249 C.2       7 UNK         0.5089 
     39 O         -74.3902   27.4797  -78.3122 O.2       7 UNK        -0.5125 
     40 CA        -76.1222   26.9199  -76.7481 C.3       6 UNK         0.0408 
     41 CB        -77.4149   27.1677  -77.5425 C.3       6 UNK        -0.1791 
     42 N         -76.3813   25.9037  -75.7173 N.am      6 UNK        -0.4762 
     43 C         -75.4976   25.4042  -74.8376 C.2       6 UNK         0.5007 
     44 O         -74.2981   25.6851  -74.8333 O.2       6 UNK        -0.5032 
     45 CA        -76.0309   24.3487  -73.8525 C.3       5 UNK         0.0783 
     46 C46       -76.8117   24.9836  -72.6709 C.3       11 UNK        -0.0857 
     47 S47       -75.6956   25.3979  -71.2913 S.3       11 UNK        -0.2512 
     48 C48       -76.8619   26.0079  -70.0266 C.3       11 UNK         0.0225 
     49 N         -76.8296   23.3585  -74.5759 N.am      5 UNK        -0.4615 
     50 C         -76.3199   22.2874  -75.1999 C.2       4 UNK         0.5053 
     51 O         -75.1284   21.9806  -75.1670 O.2       4 UNK        -0.5105 
     52 CA        -77.2938   21.4045  -76.0016 C.3       4 UNK         0.0263 
     53 CB        -77.7917   20.2352  -75.1370 C.3       4 UNK        -0.1981 
     54 N         -78.4458   22.1382  -76.5297 N.am      4 UNK        -0.4224 
     55 C         -78.3800   23.0684  -77.4925 C.2       3 UNK         0.4895 
     56 O         -77.3429   23.3788  -78.0790 O.2       3 UNK        -0.5091 
     57 CA        -79.6897   23.8059  -77.8280 C.3       3 UNK         0.0250 
     58 CB        -80.4695   23.0443  -78.9118 C.3       3 UNK        -0.1996 
     59 N         -80.5697   24.0568  -76.6766 N.am      3 UNK        -0.4254 
     60 C         -80.2140   24.7039  -75.5575 C.2       2 UNK         0.5004 
     61 O         -79.0623   25.0689  -75.3131 O.2       2 UNK        -0.5226 
     62 CA        -81.3108   24.9390  -74.5071 C.3       2 UNK         0.0269 
     63 CB        -81.3399   23.7770  -73.5012 C.3       2 UNK        -0.1926 
     64 N         -81.0706   26.1881  -73.7819 N.am      2 UNK        -0.4687 
     65 C         -81.2025   27.4089  -74.3168 C.2       1 UNK         0.5165 
     66 O         -81.6983   27.6187  -75.4279 O.2       1 UNK        -0.5079 
     67 H67       -79.2966   31.4808  -75.8686 H         1 UNK         0.0900 
     68 H68       -78.2712   30.3459  -76.7512 H         1 UNK         0.0900 
     69 H69       -77.6207   31.2335  -75.3711 H         1 UNK         0.0900 
     70 H70       -80.7830   30.3806  -74.5796 H         1 UNK         0.2959 
     71 H71       -79.8951   28.2127  -72.8403 H         1 UNK         0.1079 
     72 H72       -81.5735   30.1773  -72.2312 H         1 UNK         0.0837 
     73 H73       -82.7727   29.2276  -73.0530 H         1 UNK         0.0837 
     74 H74       -81.1622   30.0769  -69.8030 H         1 UNK         0.0685 
     75 H75       -81.0904   28.6217  -68.8421 H         1 UNK         0.0685 
     76 H76       -79.3888   26.8081  -69.4407 H         1 UNK         0.1434 
     77 H77       -75.8055   28.1994  -71.3521 H         1 UNK         0.1329 
     78 H78       -79.2352   30.7475  -71.1217 H         1 UNK         0.1335 
     79 H79       -76.3464   30.1444  -73.0480 H         1 UNK         0.0680 
     80 H80       -77.3760   31.4267  -72.4510 H         1 UNK         0.0680 
     81 H81       -73.7785   33.0192  -72.0645 H         1 UNK         0.1032 
     82 H82       -75.3460   33.1854  -72.8034 H         1 UNK         0.1032 
     83 H83       -74.9313   31.3413  -74.3329 H         1 UNK         0.0461 
     84 H84       -71.7566   33.1990  -75.8634 H         1 UNK         0.3453 
     85 H85       -71.6298   31.7572  -74.8847 H         1 UNK         0.3453 
     86 H86       -72.7571   30.6075  -72.5614 H         1 UNK         0.2984 
     87 H87       -71.3207   28.7409  -73.2237 H         1 UNK         0.0554 
     88 H88       -72.4735   26.9256  -71.9007 H         1 UNK         0.0847 
     89 H89       -74.0050   27.3837  -72.6397 H         1 UNK         0.0847 
     90 H90       -73.1687   28.5034  -71.5745 H         1 UNK         0.0847 
     91 H91       -72.8117   26.5871  -74.6172 H         1 UNK         0.3141 
     92 H92       -70.0676   26.0523  -76.8797 H         1 UNK         0.0743 
     93 H93       -71.0858   24.3349  -74.5543 H         1 UNK         0.0784 
     94 H94       -70.1635   23.7621  -75.9433 H         1 UNK         0.0784 
     95 H95       -69.4204   24.8542  -74.7858 H         1 UNK         0.0784 
     96 H96       -72.9438   25.5605  -76.2535 H         1 UNK         0.3213 
     97 H97       -73.6361   25.1409  -79.6515 H         1 UNK         0.0855 
     98 H98       -72.9299   22.7609  -79.3133 H         1 UNK         0.0814 
     99 H99       -74.6736   22.9271  -79.1871 H         1 UNK         0.0814 
    100 H100      -73.6967   22.7466  -77.7302 H         1 UNK         0.0814 
    101 H101      -75.2865   24.6098  -77.3972 H         1 UNK         0.3105 
    102 H102      -75.8506   27.8402  -76.2277 H         1 UNK         0.0547 
    103 H103      -77.6653   26.3127  -78.1700 H         1 UNK         0.0837 
    104 H104      -78.2643   27.3598  -76.8877 H         1 UNK         0.0837 
    105 H105      -77.3069   28.0320  -78.1987 H         1 UNK         0.0837 
    106 H106      -77.3537   25.6137  -75.6206 H         1 UNK         0.3020 
    107 H107      -75.1598   23.8302  -73.4437 H         1 UNK         0.1245 
    108 H108      -77.5494   24.2785  -72.2842 H         1 UNK         0.0781 
    109 H109      -77.3753   25.8689  -72.9757 H         1 UNK         0.0781 
    110 H110      -76.3218   26.1160  -69.0854 H         1 UNK         0.0836 
    111 H111      -77.6204   25.2416  -69.8587 H         1 UNK         0.0836 
    112 H112      -77.8023   23.6007  -74.7249 H         1 UNK         0.3022 
    113 H113      -76.7402   20.9930  -76.8486 H         1 UNK         0.0747 
    114 H114      -78.4189   19.5542  -75.7127 H         1 UNK         0.0793 
    115 H115      -76.9544   19.6524  -74.7503 H         1 UNK         0.0793 
    116 H116      -78.3698   20.5831  -74.2798 H         1 UNK         0.0793 
    117 H117      -79.3430   21.9495  -76.1074 H         1 UNK         0.3047 
    118 H118      -79.4155   24.7798  -78.2357 H         1 UNK         0.0822 
    119 H119      -81.3377   23.6107  -79.2494 H         1 UNK         0.0807 
    120 H120      -80.8181   22.0746  -78.5542 H         1 UNK         0.0807 
    121 H121      -79.8446   22.8631  -79.7878 H         1 UNK         0.0807 
    122 H122      -81.5323   23.7692  -76.7824 H         1 UNK         0.2946 
    123 H123      -82.2791   25.0069  -75.0084 H         1 UNK         0.1144 
    124 H124      -81.5482   22.8300  -74.0009 H         1 UNK         0.0793 
    125 H125      -82.1170   23.9222  -72.7505 H         1 UNK         0.0793 
    126 H126      -80.3872   23.6685  -72.9806 H         1 UNK         0.0793 
    127 H127      -80.6539   26.1037  -72.8663 H         1 UNK         0.2896 
@<TRIPOS>BOND
     1    1    2 1    
     2    1   67 1    
     3    1   68 1    
     4    1   69 1    
     5    2    3 2    
     6    2    4 am   BACKBONE|DICT|INTERRES
     7    4    5 1    
     8    4   70 1    
     9    5    6 1    
    10    5   65 1    
    11    5   71 1    
    12    6    7 1    
    13    6   72 1    
    14    6   73 1    
    15    7    8 1    
    16    8    9 1    
    17    8   74 1    
    18    8   75 1    
    19    9   10 ar   
    20    9   14 ar   
    21   10   11 ar   
    22   10   76 1    
    23   11   12 ar   
    24   11   48 1    
    25   12   13 ar   
    26   12   77 1    
    27   13   14 ar   
    28   13   15 1    
    29   14   78 1    
    30   15   16 1    
    31   15   79 1    
    32   15   80 1    
    33   16   17 1    
    34   17   18 1    
    35   17   81 1    
    36   17   82 1    
    37   18   19 1    
    38   18   22 1    
    39   18   83 1    
    40   19   20 am   BACKBONE|DICT|INTERRES
    41   19   21 2    
    42   20   84 1    
    43   20   85 1    
    44   22   23 am   BACKBONE|DICT|INTERRES
    45   22   86 1    
    46   23   24 2    
    47   23   25 1    
    48   25   26 1    
    49   25   27 1    
    50   25   87 1    
    51   26   88 1    
    52   26   89 1    
    53   26   90 1    
    54   27   28 am   BACKBONE|DICT|INTERRES
    55   27   91 1    
    56   28   29 2    
    57   28   30 1    
    58   30   31 1    
    59   30   32 1    
    60   30   92 1    
    61   31   93 1    
    62   31   94 1    
    63   31   95 1    
    64   32   33 am   BACKBONE|DICT|INTERRES
    65   32   96 1    
    66   33   34 2    
    67   33   35 1    
    68   35   36 1    
    69   35   37 1    
    70   35   97 1    
    71   36   98 1    
    72   36   99 1    
    73   36  100 1    
    74   37   38 am   BACKBONE|DICT|INTERRES
    75   37  101 1    
    76   38   39 2    
    77   38   40 1    
    78   40   41 1    
    79   40   42 1    
    80   40  102 1    
    81   41  103 1    
    82   41  104 1    
    83   41  105 1    
    84   42   43 am   BACKBONE|DICT|INTERRES
    85   42  106 1    
    86   43   44 2    
    87   43   45 1    
    88   45   46 1    
    89   45   49 1    
    90   45  107 1    
    91   46   47 1    
    92   46  108 1    
    93   46  109 1    
    94   47   48 1    
    95   48  110 1    
    96   48  111 1    
    97   49   50 am   BACKBONE|DICT|INTERRES
    98   49  112 1    
    99   50   51 2    
   100   50   52 1    
   101   52   53 1    
   102   52   54 1    
   103   52  113 1    
   104   53  114 1    
   105   53  115 1    
   106   53  116 1    
   107   54   55 am   BACKBONE|DICT|INTERRES
   108   54  117 1    
   109   55   56 2    
   110   55   57 1    
   111   57   58 1    
   112   57   59 1    
   113   57  118 1    
   114   58  119 1    
   115   58  120 1    
   116   58  121 1    
   117   59   60 am   BACKBONE|DICT|INTERRES
   118   59  122 1    
   119   60   61 2    
   120   60   62 1    
   121   62   63 1    
   122   62   64 1    
   123   62  123 1    
   124   63  124 1    
   125   63  125 1    
   126   63  126 1    
   127   64   65 am   BACKBONE|DICT|INTERRES
   128   64  127 1    
   129   65   66 2    
@<TRIPOS>SUBSTRUCTURE
     1 UNK         1 GROUP             0       ****    0 ROOT    
