@<TRIPOS>MOLECULE
3R135
127   129    1
SMALL
USER_CHARGES


@<TRIPOS>ATOM
      1 CA        -80.8138   21.1388  -72.2181 C.3       0 UNK        -0.1998 
      2 C         -81.7649   22.3006  -71.9744 C.2       0 UNK         0.4909 
      3 O         -82.9810   22.1226  -72.0454 O.2       0 UNK        -0.5240 
      4 N         -81.2198   23.4896  -71.6852 N.am      1 UNK        -0.4739 
      5 CA        -81.9749   24.7213  -71.4155 C.3       1 UNK         0.0864 
      6 C6        -81.1011   25.7706  -70.6826 C.3       11 UNK        -0.0881 
      7 S7        -79.6050   26.2737  -71.6044 S.3       11 UNK        -0.2682 
      8 C8        -79.1548   27.7827  -70.6925 C.3       11 UNK         0.0289 
      9 C9        -78.2083   28.6498  -71.5055 C.ar      11 UNK        -0.0687 
     10 C10       -78.7124   29.4090  -72.5640 C.ar      11 UNK        -0.0823 
     11 C11       -77.8616   30.2023  -73.3364 C.ar      11 UNK        -0.0830 
     12 C12       -76.4986   30.2460  -73.0335 C.ar      11 UNK        -0.1021 
     13 C13       -75.9817   29.4971  -71.9720 C.ar      11 UNK        -0.0753 
     14 C14       -76.8416   28.6974  -71.2108 C.ar      11 UNK        -0.0933 
     15 C15       -74.4887   29.5223  -71.6832 C.3       11 UNK         0.0166 
     16 S16       -73.8948   31.1955  -71.2867 S.3       11 UNK        -0.2615 
     17 C17       -72.0965   30.9119  -71.1665 C.3       11 UNK        -0.0865 
     18 CA        -71.3415   31.2752  -72.4728 C.3       10 UNK         0.0862 
     19 C         -69.8094   31.3125  -72.2159 C.2       10 UNK         0.5551 
     20 N         -69.2383   32.4951  -72.0335 N.am      10 UNK        -0.7319 
     21 O         -69.1495   30.2793  -72.1290 O.2       10 UNK        -0.5018 
     22 N         -71.7063   30.3674  -73.5719 N.am      10 UNK        -0.4509 
     23 C         -71.3233   30.4891  -74.8492 C.2       10 UNK         0.4899 
     24 O         -70.6741   31.4472  -75.2719 O.2       10 UNK        -0.4839 
     25 CA        -71.7646   29.3868  -75.8393 C.3       9 UNK         0.0222 
     26 CB        -70.6646   29.0577  -76.8703 C.3       9 UNK        -0.1966 
     27 N         -72.2838   28.1509  -75.2326 N.am      9 UNK        -0.4218 
     28 C         -71.6296   27.2897  -74.4359 C.2       9 UNK         0.5020 
     29 O         -70.4794   27.4584  -74.0319 O.2       9 UNK        -0.5274 
     30 CA        -72.3863   26.0186  -74.0187 C.3       8 UNK         0.0270 
     31 CB        -73.4389   26.3203  -72.9400 C.3       8 UNK        -0.1976 
     32 N         -73.0260   25.3497  -75.1506 N.am      8 UNK        -0.4313 
     33 C         -72.3726   24.6888  -76.1163 C.2       8 UNK         0.5041 
     34 O         -71.1496   24.5465  -76.1488 O.2       8 UNK        -0.5577 
     35 CA        -73.2308   24.0800  -77.2364 C.3       7 UNK         0.0284 
     36 CB        -73.8999   22.7761  -76.7706 C.3       7 UNK        -0.1958 
     37 N         -74.2469   25.0185  -77.7138 N.am      7 UNK        -0.4454 
     38 C         -73.9873   26.0767  -78.4939 C.2       7 UNK         0.5089 
     39 O         -72.8734   26.3401  -78.9472 O.2       7 UNK        -0.5125 
     40 CA        -75.1699   27.0007  -78.8290 C.3       6 UNK         0.0408 
     41 CB        -75.8307   26.5719  -80.1482 C.3       6 UNK        -0.1791 
     42 N         -76.1836   27.0469  -77.7733 N.am      6 UNK        -0.4762 
     43 C         -76.0109   27.6398  -76.5820 C.2       6 UNK         0.5007 
     44 O         -74.9581   28.1711  -76.2257 O.2       6 UNK        -0.5032 
     45 CA        -77.2034   27.5746  -75.6028 C.3       5 UNK         0.0783 
     46 C46       -78.3327   28.5626  -76.0058 C.3       11 UNK        -0.0857 
     47 S47       -77.8129   30.3141  -76.1033 S.3       11 UNK        -0.2512 
     48 C48       -78.4108   30.9837  -74.5194 C.3       11 UNK         0.0225 
     49 N         -77.7292   26.2105  -75.4719 N.am      5 UNK        -0.4615 
     50 C         -77.0080   25.1118  -75.1948 C.2       4 UNK         0.5053 
     51 O         -75.8150   25.1379  -74.8977 O.2       4 UNK        -0.5105 
     52 CA        -77.6952   23.7384  -75.3274 C.3       4 UNK         0.0263 
     53 CB        -78.0583   23.1912  -73.9389 C.3       4 UNK        -0.1981 
     54 N         -78.8909   23.7349  -76.1734 N.am      4 UNK        -0.4224 
     55 C         -78.9661   24.1393  -77.4506 C.2       3 UNK         0.4895 
     56 O         -77.9892   24.4643  -78.1270 O.2       3 UNK        -0.5091 
     57 CA        -80.3806   24.2722  -78.0494 C.3       3 UNK         0.0250 
     58 CB        -80.7009   23.0600  -78.9381 C.3       3 UNK        -0.1996 
     59 N         -81.4538   24.4426  -77.0554 N.am      3 UNK        -0.4254 
     60 C         -81.5298   25.4225  -76.1400 C.2       2 UNK         0.5004 
     61 O         -80.6770   26.3016  -76.0134 O.2       2 UNK        -0.5226 
     62 CA        -82.7060   25.3850  -75.1567 C.3       2 UNK         0.0269 
     63 CB        -83.8774   24.4770  -75.5902 C.3       2 UNK        -0.1926 
     64 N         -82.1909   24.9506  -73.8607 N.am      2 UNK        -0.4687 
     65 C         -82.6710   25.3131  -72.6651 C.2       1 UNK         0.5165 
     66 O         -83.6299   26.0732  -72.5191 O.2       1 UNK        -0.5079 
     67 H67       -79.7866   21.3920  -71.9568 H         1 UNK         0.0900 
     68 H68       -80.8391   20.8458  -73.2672 H         1 UNK         0.0900 
     69 H69       -81.1099   20.2794  -71.6171 H         1 UNK         0.0900 
     70 H70       -80.2157   23.5813  -71.6219 H         1 UNK         0.2959 
     71 H71       -82.7851   24.4521  -70.7336 H         1 UNK         0.1079 
     72 H72       -81.6985   26.6550  -70.4520 H         1 UNK         0.0837 
     73 H73       -80.7841   25.3720  -69.7175 H         1 UNK         0.0837 
     74 H74       -78.7076   27.5066  -69.7363 H         1 UNK         0.0685 
     75 H75       -80.0515   28.3595  -70.4607 H         1 UNK         0.0685 
     76 H76       -79.7676   29.3615  -72.7973 H         1 UNK         0.1434 
     77 H77       -75.8348   30.8502  -73.6375 H         1 UNK         0.1329 
     78 H78       -76.4481   28.1052  -70.3959 H         1 UNK         0.1335 
     79 H79       -73.9658   29.1584  -72.5658 H         1 UNK         0.0680 
     80 H80       -74.2377   28.8479  -70.8629 H         1 UNK         0.0680 
     81 H81       -71.7377   31.5290  -70.3400 H         1 UNK         0.1032 
     82 H82       -71.8954   29.8797  -70.8728 H         1 UNK         0.1032 
     83 H83       -71.6546   32.2768  -72.7754 H         1 UNK         0.0461 
     84 H84       -68.2484   32.5384  -71.8473 H         1 UNK         0.3453 
     85 H85       -69.7742   33.3472  -72.0929 H         1 UNK         0.3453 
     86 H86       -72.2062   29.5333  -73.3121 H         1 UNK         0.2984 
     87 H87       -72.6056   29.8112  -76.3894 H         1 UNK         0.0554 
     88 H88       -70.3801   29.9425  -77.4409 H         1 UNK         0.0847 
     89 H89       -71.0053   28.3094  -77.5866 H         1 UNK         0.0847 
     90 H90       -69.7627   28.6766  -76.3904 H         1 UNK         0.0847 
     91 H91       -73.2450   27.9356  -75.4936 H         1 UNK         0.3141 
     92 H92       -71.6575   25.3278  -73.5890 H         1 UNK         0.0743 
     93 H93       -72.9938   26.8397  -72.0906 H         1 UNK         0.0784 
     94 H94       -74.2500   26.9382  -73.3272 H         1 UNK         0.0784 
     95 H95       -73.8835   25.4008  -72.5586 H         1 UNK         0.0784 
     96 H96       -74.0455   25.3643  -75.1705 H         1 UNK         0.3213 
     97 H97       -72.5694   23.8381  -78.0716 H         1 UNK         0.0855 
     98 H98       -74.5408   22.9326  -75.9031 H         1 UNK         0.0814 
     99 H99       -73.1488   22.0377  -76.4867 H         1 UNK         0.0814 
    100 H100      -74.5053   22.3338  -77.5621 H         1 UNK         0.0814 
    101 H101      -75.1917   24.8930  -77.3795 H         1 UNK         0.3105 
    102 H102      -74.7730   28.0098  -78.9599 H         1 UNK         0.0547 
    103 H103      -76.2644   25.5734  -80.0774 H         1 UNK         0.0837 
    104 H104      -76.6228   27.2621  -80.4388 H         1 UNK         0.0837 
    105 H105      -75.1034   26.5543  -80.9611 H         1 UNK         0.0837 
    106 H106      -77.0514   26.5568  -77.9537 H         1 UNK         0.3020 
    107 H107      -76.8258   27.8584  -74.6187 H         1 UNK         0.1245 
    108 H108      -79.1633   28.4816  -75.3031 H         1 UNK         0.0781 
    109 H109      -78.7488   28.2845  -76.9759 H         1 UNK         0.0781 
    110 H110      -78.1068   32.0280  -74.4360 H         1 UNK         0.0836 
    111 H111      -79.5020   30.9804  -74.5192 H         1 UNK         0.0836 
    112 H112      -78.7174   26.1029  -75.6807 H         1 UNK         0.3022 
    113 H113      -76.9749   23.0597  -75.7873 H         1 UNK         0.0747 
    114 H114      -77.1791   23.1498  -73.2940 H         1 UNK         0.0793 
    115 H115      -78.4576   22.1792  -74.0032 H         1 UNK         0.0793 
    116 H116      -78.7961   23.8205  -73.4411 H         1 UNK         0.0793 
    117 H117      -79.7543   23.4688  -75.7268 H         1 UNK         0.3047 
    118 H118      -80.3756   25.1658  -78.6769 H         1 UNK         0.0822 
    119 H119      -79.9350   22.9233  -79.7032 H         1 UNK         0.0807 
    120 H120      -81.6520   23.1863  -79.4558 H         1 UNK         0.0807 
    121 H121      -80.7518   22.1366  -78.3597 H         1 UNK         0.0807 
    122 H122      -82.1978   23.7599  -77.0792 H         1 UNK         0.2946 
    123 H123      -83.0726   26.4112  -75.0768 H         1 UNK         0.1144 
    124 H124      -84.2384   24.7426  -76.5849 H         1 UNK         0.0793 
    125 H125      -84.7221   24.5831  -74.9091 H         1 UNK         0.0793 
    126 H126      -83.6004   23.4221  -75.6001 H         1 UNK         0.0793 
    127 H127      -81.3729   24.3603  -73.8755 H         1 UNK         0.2896 
@<TRIPOS>BOND
     1    1    2 1    
     2    1   67 1    
     3    1   68 1    
     4    1   69 1    
     5    2    3 2    
     6    2    4 am   BACKBONE|DICT|INTERRES
     7    4    5 1    
     8    4   70 1    
     9    5    6 1    
    10    5   65 1    
    11    5   71 1    
    12    6    7 1    
    13    6   72 1    
    14    6   73 1    
    15    7    8 1    
    16    8    9 1    
    17    8   74 1    
    18    8   75 1    
    19    9   10 ar   
    20    9   14 ar   
    21   10   11 ar   
    22   10   76 1    
    23   11   12 ar   
    24   11   48 1    
    25   12   13 ar   
    26   12   77 1    
    27   13   14 ar   
    28   13   15 1    
    29   14   78 1    
    30   15   16 1    
    31   15   79 1    
    32   15   80 1    
    33   16   17 1    
    34   17   18 1    
    35   17   81 1    
    36   17   82 1    
    37   18   19 1    
    38   18   22 1    
    39   18   83 1    
    40   19   20 am   BACKBONE|DICT|INTERRES
    41   19   21 2    
    42   20   84 1    
    43   20   85 1    
    44   22   23 am   BACKBONE|DICT|INTERRES
    45   22   86 1    
    46   23   24 2    
    47   23   25 1    
    48   25   26 1    
    49   25   27 1    
    50   25   87 1    
    51   26   88 1    
    52   26   89 1    
    53   26   90 1    
    54   27   28 am   BACKBONE|DICT|INTERRES
    55   27   91 1    
    56   28   29 2    
    57   28   30 1    
    58   30   31 1    
    59   30   32 1    
    60   30   92 1    
    61   31   93 1    
    62   31   94 1    
    63   31   95 1    
    64   32   33 am   BACKBONE|DICT|INTERRES
    65   32   96 1    
    66   33   34 2    
    67   33   35 1    
    68   35   36 1    
    69   35   37 1    
    70   35   97 1    
    71   36   98 1    
    72   36   99 1    
    73   36  100 1    
    74   37   38 am   BACKBONE|DICT|INTERRES
    75   37  101 1    
    76   38   39 2    
    77   38   40 1    
    78   40   41 1    
    79   40   42 1    
    80   40  102 1    
    81   41  103 1    
    82   41  104 1    
    83   41  105 1    
    84   42   43 am   BACKBONE|DICT|INTERRES
    85   42  106 1    
    86   43   44 2    
    87   43   45 1    
    88   45   46 1    
    89   45   49 1    
    90   45  107 1    
    91   46   47 1    
    92   46  108 1    
    93   46  109 1    
    94   47   48 1    
    95   48  110 1    
    96   48  111 1    
    97   49   50 am   BACKBONE|DICT|INTERRES
    98   49  112 1    
    99   50   51 2    
   100   50   52 1    
   101   52   53 1    
   102   52   54 1    
   103   52  113 1    
   104   53  114 1    
   105   53  115 1    
   106   53  116 1    
   107   54   55 am   BACKBONE|DICT|INTERRES
   108   54  117 1    
   109   55   56 2    
   110   55   57 1    
   111   57   58 1    
   112   57   59 1    
   113   57  118 1    
   114   58  119 1    
   115   58  120 1    
   116   58  121 1    
   117   59   60 am   BACKBONE|DICT|INTERRES
   118   59  122 1    
   119   60   61 2    
   120   60   62 1    
   121   62   63 1    
   122   62   64 1    
   123   62  123 1    
   124   63  124 1    
   125   63  125 1    
   126   63  126 1    
   127   64   65 am   BACKBONE|DICT|INTERRES
   128   64  127 1    
   129   65   66 2    
@<TRIPOS>SUBSTRUCTURE
     1 UNK         1 GROUP             0       ****    0 ROOT    
