@<TRIPOS>MOLECULE
3R135
127   129    1
SMALL
USER_CHARGES


@<TRIPOS>ATOM
      1 CA        -83.5765   27.5371  -77.1797 C.3       0 UNK        -0.1998 
      2 C         -82.4793   28.0008  -76.2335 C.2       0 UNK         0.4909 
      3 O         -81.4986   28.5955  -76.6812 O.2       0 UNK        -0.5240 
      4 N         -82.6394   27.7310  -74.9298 N.am      1 UNK        -0.4739 
      5 CA        -81.7045   28.0747  -73.8503 C.3       1 UNK         0.0864 
      6 C6        -82.3099   27.7016  -72.4656 C.3       11 UNK        -0.0881 
      7 S7        -81.7973   28.6423  -70.9738 S.3       11 UNK        -0.2682 
      8 C8        -80.1856   29.4441  -71.3073 C.3       11 UNK         0.0289 
      9 C9        -78.9410   28.5741  -71.1047 C.ar      11 UNK        -0.0687 
     10 C10       -78.9764   27.1740  -71.1135 C.ar      11 UNK        -0.0823 
     11 C11       -77.8070   26.4147  -71.0080 C.ar      11 UNK        -0.0830 
     12 C12       -76.5829   27.0763  -70.8397 C.ar      11 UNK        -0.1021 
     13 C13       -76.5317   28.4723  -70.7959 C.ar      11 UNK        -0.0753 
     14 C14       -77.7085   29.2110  -70.9394 C.ar      11 UNK        -0.0933 
     15 C15       -75.2104   29.1919  -70.5802 C.3       11 UNK         0.0166 
     16 S16       -74.5719   29.8840  -72.1334 S.3       11 UNK        -0.2615 
     17 C17       -73.1366   30.8139  -71.4995 C.3       11 UNK        -0.0865 
     18 CA        -72.5079   31.7358  -72.5744 C.3       10 UNK         0.0862 
     19 C         -71.3909   32.6170  -71.9508 C.2       10 UNK         0.5551 
     20 N         -71.7317   33.8088  -71.4807 N.am      10 UNK        -0.7319 
     21 O         -70.2343   32.2112  -71.8494 O.2       10 UNK        -0.5018 
     22 N         -72.0355   30.9566  -73.7262 N.am      10 UNK        -0.4509 
     23 C         -71.6187   31.4637  -74.8925 C.2       10 UNK         0.4899 
     24 O         -71.6251   32.6657  -75.1611 O.2       10 UNK        -0.4839 
     25 CA        -71.1038   30.4652  -75.9465 C.3       9 UNK         0.0222 
     26 CB        -69.5674   30.4978  -76.0049 C.3       9 UNK        -0.1966 
     27 N         -71.5463   29.0838  -75.7218 N.am      9 UNK        -0.4218 
     28 C         -72.7923   28.6388  -75.9335 C.2       9 UNK         0.5020 
     29 O         -73.7185   29.3494  -76.3310 O.2       9 UNK        -0.5274 
     30 CA        -73.0391   27.1518  -75.6189 C.3       8 UNK         0.0270 
     31 CB        -73.4848   26.9668  -74.1592 C.3       8 UNK        -0.1976 
     32 N         -74.0339   26.5427  -76.5031 N.am      8 UNK        -0.4313 
     33 C         -73.9037   26.4054  -77.8289 C.2       8 UNK         0.5041 
     34 O         -72.9078   26.7532  -78.4685 O.2       8 UNK        -0.5577 
     35 CA        -75.0866   25.7240  -78.5368 C.3       7 UNK         0.0284 
     36 CB        -74.9477   25.6836  -80.0739 C.3       7 UNK        -0.1958 
     37 N         -75.3331   24.3854  -77.9855 N.am      7 UNK        -0.4454 
     38 C         -74.5049   23.3299  -78.0061 C.2       7 UNK         0.5089 
     39 O         -73.4080   23.3168  -78.5673 O.2       7 UNK        -0.5125 
     40 CA        -75.0078   22.0688  -77.2779 C.3       6 UNK         0.0408 
     41 CB        -73.9077   21.0039  -77.0799 C.3       6 UNK        -0.1791 
     42 N         -75.6858   22.3637  -76.0098 N.am      6 UNK        -0.4762 
     43 C         -75.1652   22.9293  -74.9065 C.2       6 UNK         0.5007 
     44 O         -73.9984   23.3143  -74.8294 O.2       6 UNK        -0.5032 
     45 CA        -76.1079   23.0649  -73.6868 C.3       5 UNK         0.0783 
     46 C46       -75.6884   24.1846  -72.6963 C.3       11 UNK        -0.0857 
     47 S47       -76.3993   23.9199  -71.0363 S.3       11 UNK        -0.2512 
     48 C48       -77.9446   24.8926  -71.0884 C.3       11 UNK         0.0225 
     49 N         -77.4844   23.2582  -74.1473 N.am      5 UNK        -0.4615 
     50 C         -78.4345   22.3174  -74.2059 C.2       4 UNK         0.5053 
     51 O         -78.2816   21.1656  -73.8010 O.2       4 UNK        -0.5105 
     52 CA        -79.7707   22.7132  -74.8609 C.3       4 UNK         0.0263 
     53 CB        -80.8557   22.9182  -73.7911 C.3       4 UNK        -0.1981 
     54 N         -79.6698   23.9177  -75.6936 N.am      4 UNK        -0.4224 
     55 C         -79.0613   23.9648  -76.8902 C.2       3 UNK         0.4895 
     56 O         -78.5382   22.9886  -77.4271 O.2       3 UNK        -0.5091 
     57 CA        -78.9671   25.3355  -77.5870 C.3       3 UNK         0.0250 
     58 CB        -80.2122   25.5760  -78.4534 C.3       3 UNK        -0.1996 
     59 N         -78.8011   26.4553  -76.6569 N.am      3 UNK        -0.4254 
     60 C         -77.8052   26.5946  -75.7686 C.2       2 UNK         0.5004 
     61 O         -76.8252   25.8491  -75.7168 O.2       2 UNK        -0.5226 
     62 CA        -77.9497   27.7152  -74.7236 C.3       2 UNK         0.0269 
     63 CB        -77.0854   28.9244  -75.1054 C.3       2 UNK        -0.1926 
     64 N         -79.3285   28.1654  -74.4891 N.am      2 UNK        -0.4687 
     65 C         -80.3463   27.3869  -74.0918 C.2       1 UNK         0.5165 
     66 O         -80.2565   26.1660  -73.9491 O.2       1 UNK        -0.5079 
     67 H67       -84.1016   28.3983  -77.5919 H         1 UNK         0.0900 
     68 H68       -83.1496   26.9730  -78.0081 H         1 UNK         0.0900 
     69 H69       -84.3060   26.9014  -76.6783 H         1 UNK         0.0900 
     70 H70       -83.4592   27.2164  -74.6411 H         1 UNK         0.2959 
     71 H71       -81.5769   29.1572  -73.8962 H         1 UNK         0.1079 
     72 H72       -82.1887   26.6366  -72.2568 H         1 UNK         0.0837 
     73 H73       -83.3912   27.8431  -72.5080 H         1 UNK         0.0837 
     74 H74       -80.1186   30.2872  -70.6179 H         1 UNK         0.0685 
     75 H75       -80.1681   29.8859  -72.3018 H         1 UNK         0.0685 
     76 H76       -79.9162   26.6569  -71.2399 H         1 UNK         0.1434 
     77 H77       -75.6637   26.5177  -70.7399 H         1 UNK         0.1329 
     78 H78       -77.6596   30.2915  -70.9267 H         1 UNK         0.1335 
     79 H79       -74.4674   28.5149  -70.1557 H         1 UNK         0.0680 
     80 H80       -75.3512   29.9934  -69.8533 H         1 UNK         0.0680 
     81 H81       -73.4668   31.4068  -70.6440 H         1 UNK         0.1032 
     82 H82       -72.3982   30.1072  -71.1154 H         1 UNK         0.1032 
     83 H83       -73.2900   32.4027  -72.9438 H         1 UNK         0.0461 
     84 H84       -72.6794   34.1459  -71.5514 H         1 UNK         0.3453 
     85 H85       -71.0247   34.3895  -71.0572 H         1 UNK         0.3453 
     86 H86       -71.9969   29.9580  -73.5969 H         1 UNK         0.2984 
     87 H87       -71.4864   30.7900  -76.9165 H         1 UNK         0.0554 
     88 H88       -69.2062   31.5068  -76.2096 H         1 UNK         0.0847 
     89 H89       -69.1846   29.8536  -76.7968 H         1 UNK         0.0847 
     90 H90       -69.1195   30.1784  -75.0629 H         1 UNK         0.0847 
     91 H91       -70.8464   28.4327  -75.3942 H         1 UNK         0.3141 
     92 H92       -72.1024   26.6096  -75.7641 H         1 UNK         0.0743 
     93 H93       -74.4678   27.4010  -73.9748 H         1 UNK         0.0784 
     94 H94       -73.5315   25.9106  -73.8975 H         1 UNK         0.0784 
     95 H95       -72.7856   27.4371  -73.4668 H         1 UNK         0.0784 
     96 H96       -74.9024   26.2340  -76.0764 H         1 UNK         0.3213 
     97 H97       -75.9643   26.3299  -78.3101 H         1 UNK         0.0855 
     98 H98       -74.0637   25.1304  -80.3920 H         1 UNK         0.0814 
     99 H99       -74.8593   26.6918  -80.4802 H         1 UNK         0.0814 
    100 H100      -75.8185   25.2215  -80.5385 H         1 UNK         0.0814 
    101 H101      -76.1743   24.2912  -77.4320 H         1 UNK         0.3105 
    102 H102      -75.7679   21.6332  -77.9282 H         1 UNK         0.0547 
    103 H103      -74.2983   20.1162  -76.5827 H         1 UNK         0.0837 
    104 H104      -73.0767   21.3844  -76.4852 H         1 UNK         0.0837 
    105 H105      -73.4985   20.6824  -78.0383 H         1 UNK         0.0837 
    106 H106      -76.6658   22.1142  -75.9829 H         1 UNK         0.3020 
    107 H107      -76.0238   22.1094  -73.1636 H         1 UNK         0.1245 
    108 H108      -75.9572   25.1720  -73.0758 H         1 UNK         0.0781 
    109 H109      -74.6072   24.1993  -72.5516 H         1 UNK         0.0781 
    110 H110      -78.5667   24.5651  -70.2543 H         1 UNK         0.0836 
    111 H111      -78.4939   24.6347  -71.9940 H         1 UNK         0.0836 
    112 H112      -77.6762   24.1651  -74.5527 H         1 UNK         0.3022 
    113 H113      -80.0788   21.8839  -75.5012 H         1 UNK         0.0747 
    114 H114      -81.8116   23.1885  -74.2400 H         1 UNK         0.0793 
    115 H115      -81.0137   22.0037  -73.2179 H         1 UNK         0.0793 
    116 H116      -80.5849   23.7008  -73.0821 H         1 UNK         0.0793 
    117 H117      -80.0158   24.7781  -75.2759 H         1 UNK         0.3047 
    118 H118      -78.0981   25.3156  -78.2452 H         1 UNK         0.0822 
    119 H119      -80.1515   26.5257  -78.9856 H         1 UNK         0.0807 
    120 H120      -81.1226   25.5837  -77.8537 H         1 UNK         0.0807 
    121 H121      -80.3229   24.7911  -79.2030 H         1 UNK         0.0807 
    122 H122      -79.5542   27.1308  -76.6218 H         1 UNK         0.2946 
    123 H123      -77.5724   27.3125  -73.7815 H         1 UNK         0.1144 
    124 H124      -77.0626   29.6636  -74.3041 H         1 UNK         0.0793 
    125 H125      -77.4480   29.4138  -76.0099 H         1 UNK         0.0793 
    126 H126      -76.0542   28.6247  -75.2899 H         1 UNK         0.0793 
    127 H127      -79.5064   29.1465  -74.6491 H         1 UNK         0.2896 
@<TRIPOS>BOND
     1    1    2 1    
     2    1   67 1    
     3    1   68 1    
     4    1   69 1    
     5    2    3 2    
     6    2    4 am   BACKBONE|DICT|INTERRES
     7    4    5 1    
     8    4   70 1    
     9    5    6 1    
    10    5   65 1    
    11    5   71 1    
    12    6    7 1    
    13    6   72 1    
    14    6   73 1    
    15    7    8 1    
    16    8    9 1    
    17    8   74 1    
    18    8   75 1    
    19    9   10 ar   
    20    9   14 ar   
    21   10   11 ar   
    22   10   76 1    
    23   11   12 ar   
    24   11   48 1    
    25   12   13 ar   
    26   12   77 1    
    27   13   14 ar   
    28   13   15 1    
    29   14   78 1    
    30   15   16 1    
    31   15   79 1    
    32   15   80 1    
    33   16   17 1    
    34   17   18 1    
    35   17   81 1    
    36   17   82 1    
    37   18   19 1    
    38   18   22 1    
    39   18   83 1    
    40   19   20 am   BACKBONE|DICT|INTERRES
    41   19   21 2    
    42   20   84 1    
    43   20   85 1    
    44   22   23 am   BACKBONE|DICT|INTERRES
    45   22   86 1    
    46   23   24 2    
    47   23   25 1    
    48   25   26 1    
    49   25   27 1    
    50   25   87 1    
    51   26   88 1    
    52   26   89 1    
    53   26   90 1    
    54   27   28 am   BACKBONE|DICT|INTERRES
    55   27   91 1    
    56   28   29 2    
    57   28   30 1    
    58   30   31 1    
    59   30   32 1    
    60   30   92 1    
    61   31   93 1    
    62   31   94 1    
    63   31   95 1    
    64   32   33 am   BACKBONE|DICT|INTERRES
    65   32   96 1    
    66   33   34 2    
    67   33   35 1    
    68   35   36 1    
    69   35   37 1    
    70   35   97 1    
    71   36   98 1    
    72   36   99 1    
    73   36  100 1    
    74   37   38 am   BACKBONE|DICT|INTERRES
    75   37  101 1    
    76   38   39 2    
    77   38   40 1    
    78   40   41 1    
    79   40   42 1    
    80   40  102 1    
    81   41  103 1    
    82   41  104 1    
    83   41  105 1    
    84   42   43 am   BACKBONE|DICT|INTERRES
    85   42  106 1    
    86   43   44 2    
    87   43   45 1    
    88   45   46 1    
    89   45   49 1    
    90   45  107 1    
    91   46   47 1    
    92   46  108 1    
    93   46  109 1    
    94   47   48 1    
    95   48  110 1    
    96   48  111 1    
    97   49   50 am   BACKBONE|DICT|INTERRES
    98   49  112 1    
    99   50   51 2    
   100   50   52 1    
   101   52   53 1    
   102   52   54 1    
   103   52  113 1    
   104   53  114 1    
   105   53  115 1    
   106   53  116 1    
   107   54   55 am   BACKBONE|DICT|INTERRES
   108   54  117 1    
   109   55   56 2    
   110   55   57 1    
   111   57   58 1    
   112   57   59 1    
   113   57  118 1    
   114   58  119 1    
   115   58  120 1    
   116   58  121 1    
   117   59   60 am   BACKBONE|DICT|INTERRES
   118   59  122 1    
   119   60   61 2    
   120   60   62 1    
   121   62   63 1    
   122   62   64 1    
   123   62  123 1    
   124   63  124 1    
   125   63  125 1    
   126   63  126 1    
   127   64   65 am   BACKBONE|DICT|INTERRES
   128   64  127 1    
   129   65   66 2    
@<TRIPOS>SUBSTRUCTURE
     1 UNK         1 GROUP             0       ****    0 ROOT    
