@<TRIPOS>MOLECULE
3R135
127   129    1
SMALL
USER_CHARGES


@<TRIPOS>ATOM
      1 CA        -79.3074   29.1535  -70.6199 C.3       0 UNK        -0.1998 
      2 C         -80.3270   29.0898  -71.7441 C.2       0 UNK         0.4909 
      3 O         -81.5249   28.9837  -71.4789 O.2       0 UNK        -0.5240 
      4 N         -79.8630   29.1642  -72.9995 N.am      1 UNK        -0.4739 
      5 CA        -80.7146   29.1265  -74.1956 C.3       1 UNK         0.0864 
      6 C6        -80.0354   29.7985  -75.4192 C.3       11 UNK        -0.0881 
      7 S7        -78.8216   28.7791  -76.3274 S.3       11 UNK        -0.2682 
      8 C8        -77.2287   29.3957  -75.6966 C.3       11 UNK         0.0289 
      9 C9        -76.8914   28.8970  -74.2949 C.ar      11 UNK        -0.0687 
     10 C10       -77.0369   27.5445  -73.9744 C.ar      11 UNK        -0.0823 
     11 C11       -76.6848   27.0663  -72.7106 C.ar      11 UNK        -0.0830 
     12 C12       -76.1940   27.9595  -71.7571 C.ar      11 UNK        -0.1021 
     13 C13       -76.0582   29.3210  -72.0463 C.ar      11 UNK        -0.0753 
     14 C14       -76.4020   29.7812  -73.3267 C.ar      11 UNK        -0.0933 
     15 C15       -75.5652   30.2321  -70.9199 C.3       11 UNK         0.0166 
     16 S16       -75.6110   32.0319  -71.2410 S.3       11 UNK        -0.2615 
     17 C17       -74.0686   32.4544  -72.1435 C.3       11 UNK        -0.0865 
     18 CA        -72.7649   31.6646  -71.8330 C.3       10 UNK         0.0862 
     19 C         -72.3647   31.6882  -70.3252 C.2       10 UNK         0.5551 
     20 N         -72.0974   30.5568  -69.6853 N.am      10 UNK        -0.7319 
     21 O         -72.2812   32.7599  -69.7303 O.2       10 UNK        -0.5018 
     22 N         -72.7456   30.3671  -72.5277 N.am      10 UNK        -0.4509 
     23 C         -71.6585   29.6227  -72.7709 C.2       10 UNK         0.4899 
     24 O         -70.5356   29.8659  -72.3299 O.2       10 UNK        -0.4839 
     25 CA        -71.8552   28.4283  -73.7202 C.3       9 UNK         0.0222 
     26 CB        -72.4676   27.2316  -72.9757 C.3       9 UNK        -0.1966 
     27 N         -72.6826   28.7617  -74.8845 N.am      9 UNK        -0.4218 
     28 C         -72.3971   29.6978  -75.8005 C.2       9 UNK         0.5020 
     29 O         -71.3465   30.3422  -75.8232 O.2       9 UNK        -0.5274 
     30 CA        -73.4708   29.9438  -76.8763 C.3       8 UNK         0.0270 
     31 CB        -73.2796   31.2879  -77.6036 C.3       8 UNK        -0.1976 
     32 N         -73.5174   28.8679  -77.8685 N.am      8 UNK        -0.4313 
     33 C         -73.9726   27.6285  -77.6507 C.2       8 UNK         0.5041 
     34 O         -74.4155   27.2420  -76.5650 O.2       8 UNK        -0.5577 
     35 CA        -73.8753   26.6544  -78.8365 C.3       7 UNK         0.0284 
     36 CB        -72.4585   26.0642  -78.9279 C.3       7 UNK        -0.1958 
     37 N         -74.8282   25.5584  -78.6850 N.am      7 UNK        -0.4454 
     38 C         -76.1466   25.6395  -78.8903 C.2       7 UNK         0.5089 
     39 O         -76.6980   26.6072  -79.4159 O.2       7 UNK        -0.5125 
     40 CA        -77.0011   24.4504  -78.4093 C.3       6 UNK         0.0408 
     41 CB        -76.9618   23.2824  -79.4130 C.3       6 UNK        -0.1791 
     42 N         -76.6911   24.0106  -77.0399 N.am      6 UNK        -0.4762 
     43 C         -75.5646   23.4463  -76.5664 C.2       6 UNK         0.5007 
     44 O         -74.6047   23.1231  -77.2671 O.2       6 UNK        -0.5032 
     45 CA        -75.4843   23.2600  -75.0433 C.3       5 UNK         0.0783 
     46 C46       -75.1507   24.6225  -74.3856 C.3       11 UNK        -0.0857 
     47 S47       -75.3023   24.6522  -72.5691 S.3       11 UNK        -0.2512 
     48 C48       -76.8503   25.5916  -72.3650 C.3       11 UNK         0.0225 
     49 N         -76.7312   22.6485  -74.5748 N.am      5 UNK        -0.4615 
     50 C         -76.8764   21.3321  -74.3640 C.2       4 UNK         0.5053 
     51 O         -75.9471   20.5243  -74.3825 O.2       4 UNK        -0.5105 
     52 CA        -78.3068   20.8143  -74.1257 C.3       4 UNK         0.0263 
     53 CB        -78.6582   20.8749  -72.6304 C.3       4 UNK        -0.1981 
     54 N         -79.3121   21.5549  -74.8896 N.am      4 UNK        -0.4224 
     55 C         -79.3632   21.6482  -76.2275 C.2       3 UNK         0.4895 
     56 O         -78.6603   20.9802  -76.9855 O.2       3 UNK        -0.5091 
     57 CA        -80.3418   22.6786  -76.8263 C.3       3 UNK         0.0250 
     58 CB        -81.4860   21.9695  -77.5694 C.3       3 UNK        -0.1996 
     59 N         -80.9131   23.6107  -75.8458 N.am      3 UNK        -0.4254 
     60 C         -80.2327   24.5312  -75.1482 C.2       2 UNK         0.5004 
     61 O         -79.0140   24.7132  -75.2481 O.2       2 UNK        -0.5226 
     62 CA        -81.0439   25.2785  -74.0820 C.3       2 UNK         0.0269 
     63 CB        -80.8735   24.5966  -72.7137 C.3       2 UNK        -0.1926 
     64 N         -80.6174   26.6705  -73.9704 N.am      2 UNK        -0.4687 
     65 C         -81.2745   27.7155  -74.4941 C.2       1 UNK         0.5165 
     66 O         -82.3008   27.6070  -75.1680 O.2       1 UNK        -0.5079 
     67 H67       -79.7911   29.3988  -69.6748 H         1 UNK         0.0900 
     68 H68       -78.5615   29.9211  -70.8204 H         1 UNK         0.0900 
     69 H69       -78.8060   28.1932  -70.5064 H         1 UNK         0.0900 
     70 H70       -78.8667   29.2273  -73.1670 H         1 UNK         0.2959 
     71 H71       -81.5912   29.7376  -73.9670 H         1 UNK         0.1079 
     72 H72       -80.8072   30.0750  -76.1396 H         1 UNK         0.0837 
     73 H73       -79.5745   30.7423  -75.1236 H         1 UNK         0.0837 
     74 H74       -76.4586   29.0390  -76.3783 H         1 UNK         0.0685 
     75 H75       -77.2117   30.4853  -75.7482 H         1 UNK         0.0685 
     76 H76       -77.4229   26.8631  -74.7204 H         1 UNK         0.1434 
     77 H77       -75.9279   27.5914  -70.7752 H         1 UNK         0.1329 
     78 H78       -76.2993   30.8264  -73.5795 H         1 UNK         0.1335 
     79 H79       -76.2063   30.0600  -70.0543 H         1 UNK         0.0680 
     80 H80       -74.5752   29.9143  -70.6035 H         1 UNK         0.0680 
     81 H81       -73.8847   33.5135  -71.9531 H         1 UNK         0.1032 
     82 H82       -74.2806   32.4038  -73.2126 H         1 UNK         0.1032 
     83 H83       -71.9658   32.2333  -72.3130 H         1 UNK         0.0461 
     84 H84       -72.1117   29.6793  -70.1786 H         1 UNK         0.3453 
     85 H85       -71.8319   30.5886  -68.7137 H         1 UNK         0.3453 
     86 H86       -73.6267   30.0591  -72.9113 H         1 UNK         0.2984 
     87 H87       -70.8712   28.1324  -74.0893 H         1 UNK         0.0554 
     88 H88       -72.4856   26.3434  -73.6064 H         1 UNK         0.0847 
     89 H89       -73.4898   27.4314  -72.6532 H         1 UNK         0.0847 
     90 H90       -71.8868   26.9818  -72.0868 H         1 UNK         0.0847 
     91 H91       -73.5183   28.2043  -75.0423 H         1 UNK         0.3141 
     92 H92       -74.4301   29.9901  -76.3612 H         1 UNK         0.0743 
     93 H93       -74.1022   31.4876  -78.2906 H         1 UNK         0.0784 
     94 H94       -73.2466   32.1145  -76.8924 H         1 UNK         0.0784 
     95 H95       -72.3508   31.3125  -78.1751 H         1 UNK         0.0784 
     96 H96       -73.1327   29.0857  -78.7767 H         1 UNK         0.3213 
     97 H97       -74.1012   27.1929  -79.7595 H         1 UNK         0.0855 
     98 H98       -72.1896   25.5220  -78.0200 H         1 UNK         0.0814 
     99 H99       -71.7129   26.8469  -79.0730 H         1 UNK         0.0814 
    100 H100      -72.3697   25.3748  -79.7678 H         1 UNK         0.0814 
    101 H101      -74.4945   24.7234  -78.2110 H         1 UNK         0.3105 
    102 H102      -78.0310   24.8082  -78.3680 H         1 UNK         0.0547 
    103 H103      -77.2982   23.6078  -80.3981 H         1 UNK         0.0837 
    104 H104      -75.9573   22.8767  -79.5340 H         1 UNK         0.0837 
    105 H105      -77.6154   22.4685  -79.1002 H         1 UNK         0.0837 
    106 H106      -77.4006   24.2725  -76.3614 H         1 UNK         0.3020 
    107 H107      -74.6463   22.5893  -74.8388 H         1 UNK         0.1245 
    108 H108      -75.7619   25.4141  -74.8109 H         1 UNK         0.0781 
    109 H109      -74.1253   24.9018  -74.6332 H         1 UNK         0.0781 
    110 H110      -77.1895   25.4927  -71.3329 H         1 UNK         0.0836 
    111 H111      -77.6255   25.1402  -72.9833 H         1 UNK         0.0836 
    112 H112      -77.5504   23.2422  -74.5608 H         1 UNK         0.3022 
    113 H113      -78.3427   19.7720  -74.4497 H         1 UNK         0.0747 
    114 H114      -79.6417   20.4470  -72.4349 H         1 UNK         0.0793 
    115 H115      -77.9373   20.3089  -72.0385 H         1 UNK         0.0793 
    116 H116      -78.6548   21.8989  -72.2541 H         1 UNK         0.0793 
    117 H117      -79.9560   22.1196  -74.3577 H         1 UNK         0.3047 
    118 H118      -79.7772   23.2668  -77.5520 H         1 UNK         0.0822 
    119 H119      -82.1380   22.6848  -78.0712 H         1 UNK         0.0807 
    120 H120      -82.0980   21.3716  -76.8929 H         1 UNK         0.0807 
    121 H121      -81.0976   21.2977  -78.3364 H         1 UNK         0.0807 
    122 H122      -81.9054   23.5175  -75.6793 H         1 UNK         0.2946 
    123 H123      -82.1025   25.2378  -74.3499 H         1 UNK         0.1144 
    124 H124      -81.4485   25.1118  -71.9438 H         1 UNK         0.0793 
    125 H125      -79.8328   24.5762  -72.3911 H         1 UNK         0.0793 
    126 H126      -81.2273   23.5652  -72.7403 H         1 UNK         0.0793 
    127 H127      -79.7512   26.8458  -73.4833 H         1 UNK         0.2896 
@<TRIPOS>BOND
     1    1    2 1    
     2    1   67 1    
     3    1   68 1    
     4    1   69 1    
     5    2    3 2    
     6    2    4 am   BACKBONE|DICT|INTERRES
     7    4    5 1    
     8    4   70 1    
     9    5    6 1    
    10    5   65 1    
    11    5   71 1    
    12    6    7 1    
    13    6   72 1    
    14    6   73 1    
    15    7    8 1    
    16    8    9 1    
    17    8   74 1    
    18    8   75 1    
    19    9   10 ar   
    20    9   14 ar   
    21   10   11 ar   
    22   10   76 1    
    23   11   12 ar   
    24   11   48 1    
    25   12   13 ar   
    26   12   77 1    
    27   13   14 ar   
    28   13   15 1    
    29   14   78 1    
    30   15   16 1    
    31   15   79 1    
    32   15   80 1    
    33   16   17 1    
    34   17   18 1    
    35   17   81 1    
    36   17   82 1    
    37   18   19 1    
    38   18   22 1    
    39   18   83 1    
    40   19   20 am   BACKBONE|DICT|INTERRES
    41   19   21 2    
    42   20   84 1    
    43   20   85 1    
    44   22   23 am   BACKBONE|DICT|INTERRES
    45   22   86 1    
    46   23   24 2    
    47   23   25 1    
    48   25   26 1    
    49   25   27 1    
    50   25   87 1    
    51   26   88 1    
    52   26   89 1    
    53   26   90 1    
    54   27   28 am   BACKBONE|DICT|INTERRES
    55   27   91 1    
    56   28   29 2    
    57   28   30 1    
    58   30   31 1    
    59   30   32 1    
    60   30   92 1    
    61   31   93 1    
    62   31   94 1    
    63   31   95 1    
    64   32   33 am   BACKBONE|DICT|INTERRES
    65   32   96 1    
    66   33   34 2    
    67   33   35 1    
    68   35   36 1    
    69   35   37 1    
    70   35   97 1    
    71   36   98 1    
    72   36   99 1    
    73   36  100 1    
    74   37   38 am   BACKBONE|DICT|INTERRES
    75   37  101 1    
    76   38   39 2    
    77   38   40 1    
    78   40   41 1    
    79   40   42 1    
    80   40  102 1    
    81   41  103 1    
    82   41  104 1    
    83   41  105 1    
    84   42   43 am   BACKBONE|DICT|INTERRES
    85   42  106 1    
    86   43   44 2    
    87   43   45 1    
    88   45   46 1    
    89   45   49 1    
    90   45  107 1    
    91   46   47 1    
    92   46  108 1    
    93   46  109 1    
    94   47   48 1    
    95   48  110 1    
    96   48  111 1    
    97   49   50 am   BACKBONE|DICT|INTERRES
    98   49  112 1    
    99   50   51 2    
   100   50   52 1    
   101   52   53 1    
   102   52   54 1    
   103   52  113 1    
   104   53  114 1    
   105   53  115 1    
   106   53  116 1    
   107   54   55 am   BACKBONE|DICT|INTERRES
   108   54  117 1    
   109   55   56 2    
   110   55   57 1    
   111   57   58 1    
   112   57   59 1    
   113   57  118 1    
   114   58  119 1    
   115   58  120 1    
   116   58  121 1    
   117   59   60 am   BACKBONE|DICT|INTERRES
   118   59  122 1    
   119   60   61 2    
   120   60   62 1    
   121   62   63 1    
   122   62   64 1    
   123   62  123 1    
   124   63  124 1    
   125   63  125 1    
   126   63  126 1    
   127   64   65 am   BACKBONE|DICT|INTERRES
   128   64  127 1    
   129   65   66 2    
@<TRIPOS>SUBSTRUCTURE
     1 UNK         1 GROUP             0       ****    0 ROOT    
