@<TRIPOS>MOLECULE
3R135
127   129    1
SMALL
USER_CHARGES


@<TRIPOS>ATOM
      1 CA        -83.9604   24.5410  -74.3084 C.3       0 UNK        -0.1998 
      2 C         -82.9666   25.6868  -74.1982 C.2       0 UNK         0.4909 
      3 O         -82.7681   26.4186  -75.1687 O.2       0 UNK        -0.5240 
      4 N         -82.3300   25.8404  -73.0281 N.am      1 UNK        -0.4739 
      5 CA        -81.3067   26.8537  -72.7373 C.3       1 UNK         0.0864 
      6 C6        -80.8730   26.8087  -71.2450 C.3       11 UNK        -0.0881 
      7 S7        -80.6302   28.4296  -70.4272 S.3       11 UNK        -0.2682 
      8 C8        -79.6219   29.4418  -71.5744 C.3       11 UNK         0.0289 
      9 C9        -78.2149   28.9313  -71.8972 C.ar      11 UNK        -0.0687 
     10 C10       -77.6134   27.8646  -71.2178 C.ar      11 UNK        -0.0823 
     11 C11       -76.3502   27.4010  -71.5917 C.ar      11 UNK        -0.0830 
     12 C12       -75.6536   28.0438  -72.6180 C.ar      11 UNK        -0.1021 
     13 C13       -76.2268   29.1241  -73.2921 C.ar      11 UNK        -0.0753 
     14 C14       -77.5069   29.5561  -72.9297 C.ar      11 UNK        -0.0933 
     15 C15       -75.4708   29.8031  -74.4276 C.3       11 UNK         0.0166 
     16 S16       -75.2263   31.5841  -74.1401 S.3       11 UNK        -0.2615 
     17 C17       -74.1876   31.5878  -72.6379 C.3       11 UNK        -0.0865 
     18 CA        -72.7290   32.0210  -72.9285 C.3       10 UNK         0.0862 
     19 C         -71.9516   32.2823  -71.6056 C.2       10 UNK         0.5551 
     20 N         -70.9041   31.5302  -71.2874 N.am      10 UNK        -0.7319 
     21 O         -72.3012   33.1932  -70.8591 O.2       10 UNK        -0.5018 
     22 N         -72.0488   31.0761  -73.8286 N.am      10 UNK        -0.4509 
     23 C         -71.0868   31.4050  -74.6952 C.2       10 UNK         0.4899 
     24 O         -70.7497   32.5671  -74.9249 O.2       10 UNK        -0.4839 
     25 CA        -70.3526   30.2692  -75.4369 C.3       9 UNK         0.0222 
     26 CB        -68.9450   30.0661  -74.8421 C.3       9 UNK        -0.1966 
     27 N         -71.0507   28.9775  -75.5489 N.am      9 UNK        -0.4218 
     28 C         -71.4297   28.1187  -74.5937 C.2       9 UNK         0.5020 
     29 O         -71.3871   28.3747  -73.3890 O.2       9 UNK        -0.5274 
     30 CA        -71.9528   26.7487  -75.0755 C.3       8 UNK         0.0270 
     31 CB        -72.1750   25.7661  -73.9108 C.3       8 UNK        -0.1976 
     32 N         -73.1810   26.8347  -75.8739 N.am      8 UNK        -0.4313 
     33 C         -73.2713   27.3156  -77.1216 C.2       8 UNK         0.5041 
     34 O         -72.3147   27.7956  -77.7354 O.2       8 UNK        -0.5577 
     35 CA        -74.6598   27.2370  -77.7862 C.3       7 UNK         0.0284 
     36 CB        -74.6456   27.6988  -79.2582 C.3       7 UNK        -0.1958 
     37 N         -75.2828   25.9119  -77.6763 N.am      7 UNK        -0.4454 
     38 C         -74.7937   24.7288  -78.0786 C.2       7 UNK         0.5089 
     39 O         -73.6838   24.5691  -78.5895 O.2       7 UNK        -0.5125 
     40 CA        -75.7332   23.5253  -77.8653 C.3       6 UNK         0.0408 
     41 CB        -75.1087   22.1756  -78.2788 C.3       6 UNK        -0.1791 
     42 N         -76.2621   23.4758  -76.4964 N.am      6 UNK        -0.4762 
     43 C         -75.5733   23.2851  -75.3602 C.2       6 UNK         0.5007 
     44 O         -74.3632   23.0629  -75.3249 O.2       6 UNK        -0.5032 
     45 CA        -76.3490   23.3741  -74.0271 C.3       5 UNK         0.0783 
     46 C46       -75.9396   24.6499  -73.2568 C.3       11 UNK        -0.0857 
     47 S47       -76.5305   24.6471  -71.5330 S.3       11 UNK        -0.2512 
     48 C48       -75.7622   26.1769  -70.9078 C.3       11 UNK         0.0225 
     49 N         -77.8038   23.2976  -74.2067 N.am      5 UNK        -0.4615 
     50 C         -78.4786   22.1690  -74.4623 C.2       4 UNK         0.5053 
     51 O         -77.9520   21.0600  -74.5511 O.2       4 UNK        -0.5105 
     52 CA        -79.9914   22.3080  -74.6827 C.3       4 UNK         0.0263 
     53 CB        -80.7339   22.4446  -73.3429 C.3       4 UNK        -0.1981 
     54 N         -80.2961   23.4526  -75.5438 N.am      4 UNK        -0.4224 
     55 C         -80.2415   23.4235  -76.8840 C.2       3 UNK         0.4895 
     56 O         -79.9795   22.4115  -77.5338 O.2       3 UNK        -0.5091 
     57 CA        -80.5197   24.7364  -77.6380 C.3       3 UNK         0.0250 
     58 CB        -81.9754   24.7793  -78.1296 C.3       3 UNK        -0.1996 
     59 N         -80.2380   25.9292  -76.8357 N.am      3 UNK        -0.4254 
     60 C         -79.0006   26.3811  -76.5832 C.2       2 UNK         0.5004 
     61 O         -77.9811   25.8651  -77.0359 O.2       2 UNK        -0.5226 
     62 CA        -78.8589   27.5768  -75.6278 C.3       2 UNK         0.0269 
     63 CB        -78.8365   28.8950  -76.4166 C.3       2 UNK        -0.1926 
     64 N         -79.9031   27.6307  -74.6020 N.am      2 UNK        -0.4687 
     65 C         -80.1065   26.6717  -73.6882 C.2       1 UNK         0.5165 
     66 O         -79.4359   25.6381  -73.6264 O.2       1 UNK        -0.5079 
     67 H67       -84.9309   24.9169  -74.6310 H         1 UNK         0.0900 
     68 H68       -83.6146   23.8144  -75.0432 H         1 UNK         0.0900 
     69 H69       -84.0960   24.0255  -73.3579 H         1 UNK         0.0900 
     70 H70       -82.5276   25.1954  -72.2767 H         1 UNK         0.2959 
     71 H71       -81.7743   27.8197  -72.9371 H         1 UNK         0.1079 
     72 H72       -79.9886   26.1867  -71.0933 H         1 UNK         0.0837 
     73 H73       -81.6470   26.3167  -70.6538 H         1 UNK         0.0837 
     74 H74       -79.5192   30.4326  -71.1297 H         1 UNK         0.0685 
     75 H75       -80.1799   29.5897  -72.4988 H         1 UNK         0.0685 
     76 H76       -78.1280   27.3629  -70.4121 H         1 UNK         0.1434 
     77 H77       -74.6716   27.6930  -72.9017 H         1 UNK         0.1329 
     78 H78       -77.9548   30.3856  -73.4595 H         1 UNK         0.1335 
     79 H79       -76.0304   29.6711  -75.3541 H         1 UNK         0.0680 
     80 H80       -74.4972   29.3370  -74.5864 H         1 UNK         0.0680 
     81 H81       -74.2050   30.6092  -72.1559 H         1 UNK         0.1032 
     82 H82       -74.6570   32.2745  -71.9308 H         1 UNK         0.1032 
     83 H83       -72.7808   32.9897  -73.4294 H         1 UNK         0.0461 
     84 H84       -70.4056   31.7123  -70.4307 H         1 UNK         0.3453 
     85 H85       -70.6229   30.7695  -71.8859 H         1 UNK         0.3453 
     86 H86       -72.1766   30.0885  -73.6336 H         1 UNK         0.2984 
     87 H87       -70.2269   30.6158  -76.4638 H         1 UNK         0.0554 
     88 H88       -68.3825   31.0009  -74.8368 H         1 UNK         0.0847 
     89 H89       -68.3682   29.3473  -75.4241 H         1 UNK         0.0847 
     90 H90       -68.9862   29.7078  -73.8130 H         1 UNK         0.0847 
     91 H91       -71.2576   28.6781  -76.5020 H         1 UNK         0.3141 
     92 H92       -71.1739   26.3223  -75.7115 H         1 UNK         0.0743 
     93 H93       -71.2540   25.6219  -73.3444 H         1 UNK         0.0784 
     94 H94       -72.4852   24.7849  -74.2702 H         1 UNK         0.0784 
     95 H95       -72.9281   26.1275  -73.2113 H         1 UNK         0.0784 
     96 H96       -74.0137   26.4449  -75.4594 H         1 UNK         0.3213 
     97 H97       -75.3018   27.9252  -77.2342 H         1 UNK         0.0855 
     98 H98       -74.0023   27.0680  -79.8728 H         1 UNK         0.0814 
     99 H99       -74.2768   28.7217  -79.3444 H         1 UNK         0.0814 
    100 H100      -75.6464   27.6788  -79.6895 H         1 UNK         0.0814 
    101 H101      -76.2405   25.9043  -77.3218 H         1 UNK         0.3105 
    102 H102      -76.5948   23.6946  -78.5132 H         1 UNK         0.0547 
    103 H103      -75.8065   21.3526  -78.1260 H         1 UNK         0.0837 
    104 H104      -74.2004   21.9551  -77.7176 H         1 UNK         0.0837 
    105 H105      -74.8400   22.1809  -79.3358 H         1 UNK         0.0837 
    106 H106      -77.2416   23.7117  -76.4071 H         1 UNK         0.3020 
    107 H107      -76.0345   22.5093  -73.4379 H         1 UNK         0.1245 
    108 H108      -76.3225   25.5365  -73.7654 H         1 UNK         0.0781 
    109 H109      -74.8542   24.7485  -73.2232 H         1 UNK         0.0781 
    110 H110      -74.6813   26.1306  -71.0501 H         1 UNK         0.0836 
    111 H111      -75.9264   26.2441  -69.8314 H         1 UNK         0.0836 
    112 H112      -78.3224   24.1621  -74.0696 H         1 UNK         0.3022 
    113 H113      -80.3452   21.3949  -75.1670 H         1 UNK         0.0747 
    114 H114      -81.8123   22.4918  -73.4912 H         1 UNK         0.0793 
    115 H115      -80.5345   21.5853  -72.7012 H         1 UNK         0.0793 
    116 H116      -80.4297   23.3352  -72.7925 H         1 UNK         0.0793 
    117 H117      -80.4393   24.3407  -75.0814 H         1 UNK         0.3047 
    118 H118      -79.8689   24.7520  -78.5154 H         1 UNK         0.0822 
    119 H119      -82.1736   25.6839  -78.7048 H         1 UNK         0.0807 
    120 H120      -82.6853   24.7455  -77.3032 H         1 UNK         0.0807 
    121 H121      -82.1923   23.9296  -78.7784 H         1 UNK         0.0807 
    122 H122      -81.0303   26.3835  -76.3929 H         1 UNK         0.2946 
    123 H123      -77.9015   27.4640  -75.1142 H         1 UNK         0.1144 
    124 H124      -78.6550   29.7486  -75.7640 H         1 UNK         0.0793 
    125 H125      -79.7772   29.0677  -76.9409 H         1 UNK         0.0793 
    126 H126      -78.0427   28.8878  -77.1651 H         1 UNK         0.0793 
    127 H127      -80.5307   28.4208  -74.6360 H         1 UNK         0.2896 
@<TRIPOS>BOND
     1    1    2 1    
     2    1   67 1    
     3    1   68 1    
     4    1   69 1    
     5    2    3 2    
     6    2    4 am   BACKBONE|DICT|INTERRES
     7    4    5 1    
     8    4   70 1    
     9    5    6 1    
    10    5   65 1    
    11    5   71 1    
    12    6    7 1    
    13    6   72 1    
    14    6   73 1    
    15    7    8 1    
    16    8    9 1    
    17    8   74 1    
    18    8   75 1    
    19    9   10 ar   
    20    9   14 ar   
    21   10   11 ar   
    22   10   76 1    
    23   11   12 ar   
    24   11   48 1    
    25   12   13 ar   
    26   12   77 1    
    27   13   14 ar   
    28   13   15 1    
    29   14   78 1    
    30   15   16 1    
    31   15   79 1    
    32   15   80 1    
    33   16   17 1    
    34   17   18 1    
    35   17   81 1    
    36   17   82 1    
    37   18   19 1    
    38   18   22 1    
    39   18   83 1    
    40   19   20 am   BACKBONE|DICT|INTERRES
    41   19   21 2    
    42   20   84 1    
    43   20   85 1    
    44   22   23 am   BACKBONE|DICT|INTERRES
    45   22   86 1    
    46   23   24 2    
    47   23   25 1    
    48   25   26 1    
    49   25   27 1    
    50   25   87 1    
    51   26   88 1    
    52   26   89 1    
    53   26   90 1    
    54   27   28 am   BACKBONE|DICT|INTERRES
    55   27   91 1    
    56   28   29 2    
    57   28   30 1    
    58   30   31 1    
    59   30   32 1    
    60   30   92 1    
    61   31   93 1    
    62   31   94 1    
    63   31   95 1    
    64   32   33 am   BACKBONE|DICT|INTERRES
    65   32   96 1    
    66   33   34 2    
    67   33   35 1    
    68   35   36 1    
    69   35   37 1    
    70   35   97 1    
    71   36   98 1    
    72   36   99 1    
    73   36  100 1    
    74   37   38 am   BACKBONE|DICT|INTERRES
    75   37  101 1    
    76   38   39 2    
    77   38   40 1    
    78   40   41 1    
    79   40   42 1    
    80   40  102 1    
    81   41  103 1    
    82   41  104 1    
    83   41  105 1    
    84   42   43 am   BACKBONE|DICT|INTERRES
    85   42  106 1    
    86   43   44 2    
    87   43   45 1    
    88   45   46 1    
    89   45   49 1    
    90   45  107 1    
    91   46   47 1    
    92   46  108 1    
    93   46  109 1    
    94   47   48 1    
    95   48  110 1    
    96   48  111 1    
    97   49   50 am   BACKBONE|DICT|INTERRES
    98   49  112 1    
    99   50   51 2    
   100   50   52 1    
   101   52   53 1    
   102   52   54 1    
   103   52  113 1    
   104   53  114 1    
   105   53  115 1    
   106   53  116 1    
   107   54   55 am   BACKBONE|DICT|INTERRES
   108   54  117 1    
   109   55   56 2    
   110   55   57 1    
   111   57   58 1    
   112   57   59 1    
   113   57  118 1    
   114   58  119 1    
   115   58  120 1    
   116   58  121 1    
   117   59   60 am   BACKBONE|DICT|INTERRES
   118   59  122 1    
   119   60   61 2    
   120   60   62 1    
   121   62   63 1    
   122   62   64 1    
   123   62  123 1    
   124   63  124 1    
   125   63  125 1    
   126   63  126 1    
   127   64   65 am   BACKBONE|DICT|INTERRES
   128   64  127 1    
   129   65   66 2    
@<TRIPOS>SUBSTRUCTURE
     1 UNK         1 GROUP             0       ****    0 ROOT    
