@<TRIPOS>MOLECULE
3R135
127   129    1
SMALL
USER_CHARGES


@<TRIPOS>ATOM
      1 CA        -74.4791   23.1861  -70.8579 C.3       0 UNK        -0.1998 
      2 C         -75.9575   23.5022  -70.6855 C.2       0 UNK         0.4909 
      3 O         -76.5876   23.0012  -69.7536 O.2       0 UNK        -0.5240 
      4 N         -76.5141   24.3343  -71.5745 N.am      1 UNK        -0.4739 
      5 CA        -77.9362   24.6794  -71.6180 C.3       1 UNK         0.0864 
      6 C6        -78.1696   25.9420  -72.4910 C.3       11 UNK        -0.0881 
      7 S7        -79.9295   26.4188  -72.6463 S.3       11 UNK        -0.2682 
      8 C8        -79.9809   28.0270  -71.7964 C.3       11 UNK         0.0289 
      9 C9        -79.4479   29.1330  -72.6921 C.ar      11 UNK        -0.0687 
     10 C10       -80.1651   29.5046  -73.8333 C.ar      11 UNK        -0.0823 
     11 C11       -79.6577   30.4719  -74.7044 C.ar      11 UNK        -0.0830 
     12 C12       -78.4580   31.1176  -74.3903 C.ar      11 UNK        -0.1021 
     13 C13       -77.7378   30.7620  -73.2461 C.ar      11 UNK        -0.0753 
     14 C14       -78.2344   29.7642  -72.4019 C.ar      11 UNK        -0.0933 
     15 C15       -76.4164   31.4477  -72.9378 C.3       11 UNK         0.0166 
     16 S16       -75.1072   30.8913  -74.0707 S.3       11 UNK        -0.2615 
     17 C17       -73.7001   31.9062  -73.4957 C.3       11 UNK        -0.0865 
     18 CA        -72.4902   31.0729  -72.9972 C.3       10 UNK         0.0862 
     19 C         -72.7512   30.3828  -71.6238 C.2       10 UNK         0.5551 
     20 N         -72.5069   29.0870  -71.4616 N.am      10 UNK        -0.7319 
     21 O         -73.1694   31.0448  -70.6771 O.2       10 UNK        -0.5018 
     22 N         -72.0017   30.1767  -74.0533 N.am      10 UNK        -0.4509 
     23 C         -70.7385   29.7641  -74.2030 C.2       10 UNK         0.4899 
     24 O         -69.7980   30.1643  -73.5151 O.2       10 UNK        -0.4839 
     25 CA        -70.5075   28.7118  -75.3052 C.3       9 UNK         0.0222 
     26 CB        -69.1239   28.0337  -75.2130 C.3       9 UNK        -0.1966 
     27 N         -71.5798   27.7081  -75.3618 N.am      9 UNK        -0.4218 
     28 C         -71.9575   26.8692  -74.3803 C.2       9 UNK         0.5020 
     29 O         -71.4314   26.8488  -73.2667 O.2       9 UNK        -0.5274 
     30 CA        -73.1450   25.9210  -74.6454 C.3       8 UNK         0.0270 
     31 CB        -74.2805   26.2050  -73.6461 C.3       8 UNK        -0.1976 
     32 N         -73.6668   26.0172  -76.0121 N.am      8 UNK        -0.4313 
     33 C         -73.0924   25.4525  -77.0870 C.2       8 UNK         0.5041 
     34 O         -72.1396   24.6762  -77.0125 O.2       8 UNK        -0.5577 
     35 CA        -73.6181   25.8457  -78.4836 C.3       7 UNK         0.0284 
     36 CB        -74.3382   24.6713  -79.1658 C.3       7 UNK        -0.1958 
     37 N         -74.4842   27.0295  -78.4819 N.am      7 UNK        -0.4454 
     38 C         -74.0594   28.2736  -78.2101 C.2       7 UNK         0.5089 
     39 O         -72.8825   28.5496  -77.9739 O.2       7 UNK        -0.5125 
     40 CA        -75.1206   29.3868  -78.1182 C.3       6 UNK         0.0408 
     41 CB        -75.2179   30.1452  -79.4504 C.3       6 UNK        -0.1791 
     42 N         -76.4579   28.9309  -77.7228 N.am      6 UNK        -0.4762 
     43 C         -76.7544   28.2512  -76.6064 C.2       6 UNK         0.5007 
     44 O         -75.9017   27.8752  -75.8016 O.2       6 UNK        -0.5032 
     45 CA        -78.2279   27.8537  -76.3573 C.3       5 UNK         0.0783 
     46 C46       -79.2940   28.4467  -77.3289 C.3       11 UNK        -0.0857 
     47 S47       -79.3500   30.2743  -77.4500 S.3       11 UNK        -0.2512 
     48 C48       -80.3666   30.7681  -76.0171 C.3       11 UNK         0.0225 
     49 N         -78.3511   26.3954  -76.2334 N.am      5 UNK        -0.4615 
     50 C         -77.9172   25.4854  -77.1183 C.2       4 UNK         0.5053 
     51 O         -77.4290   25.7681  -78.2134 O.2       4 UNK        -0.5105 
     52 CA        -78.0128   24.0085  -76.7015 C.3       4 UNK         0.0263 
     53 CB        -76.7515   23.5898  -75.9268 C.3       4 UNK        -0.1981 
     54 N         -79.1965   23.6879  -75.8976 N.am      4 UNK        -0.4224 
     55 C         -80.4528   23.6712  -76.3751 C.2       3 UNK         0.4895 
     56 O         -80.7372   24.0044  -77.5263 O.2       3 UNK        -0.5091 
     57 CA        -81.5841   23.1826  -75.4489 C.3       3 UNK         0.0250 
     58 CB        -82.4741   22.1303  -76.1394 C.3       3 UNK        -0.1996 
     59 N         -81.0780   22.6420  -74.1874 N.am      3 UNK        -0.4254 
     60 C         -81.7022   22.7008  -73.0069 C.2       2 UNK         0.5004 
     61 O         -82.8349   23.1565  -72.8463 O.2       2 UNK        -0.5226 
     62 CA        -80.9077   22.2011  -71.7871 C.3       2 UNK         0.0269 
     63 CB        -80.3876   20.7577  -71.9612 C.3       2 UNK        -0.1926 
     64 N         -79.8369   23.1368  -71.4160 N.am      2 UNK        -0.4687 
     65 C         -78.7506   23.4720  -72.1286 C.2       1 UNK         0.5165 
     66 O         -78.4209   22.9288  -73.1873 O.2       1 UNK        -0.5079 
     67 H67       -74.0826   23.5800  -71.7933 H         1 UNK         0.0900 
     68 H68       -74.3239   22.1075  -70.8558 H         1 UNK         0.0900 
     69 H69       -73.9056   23.6146  -70.0365 H         1 UNK         0.0900 
     70 H70       -75.9527   24.6908  -72.3321 H         1 UNK         0.2959 
     71 H71       -78.2558   24.9109  -70.5992 H         1 UNK         0.1079 
     72 H72       -77.6029   26.7802  -72.0828 H         1 UNK         0.0837 
     73 H73       -77.7745   25.7859  -73.4951 H         1 UNK         0.0837 
     74 H74       -81.0145   28.2518  -71.5299 H         1 UNK         0.0685 
     75 H75       -79.4265   27.9694  -70.8583 H         1 UNK         0.0685 
     76 H76       -81.0910   28.9969  -74.0683 H         1 UNK         0.1434 
     77 H77       -78.0593   31.8661  -75.0618 H         1 UNK         0.1329 
     78 H78       -77.6726   29.4744  -71.5244 H         1 UNK         0.1335 
     79 H79       -76.1091   31.2514  -71.9092 H         1 UNK         0.0680 
     80 H80       -76.5403   32.5280  -73.0274 H         1 UNK         0.0680 
     81 H81       -74.0271   32.6055  -72.7238 H         1 UNK         0.1032 
     82 H82       -73.3844   32.5331  -74.3310 H         1 UNK         0.1032 
     83 H83       -71.6939   31.7914  -72.7939 H         1 UNK         0.0461 
     84 H84       -72.6768   28.6685  -70.5615 H         1 UNK         0.3453 
     85 H85       -72.1251   28.5239  -72.2113 H         1 UNK         0.3453 
     86 H86       -72.7168   29.7820  -74.6471 H         1 UNK         0.2984 
     87 H87       -70.5470   29.2509  -76.2529 H         1 UNK         0.0554 
     88 H88       -68.9838   27.3078  -76.0139 H         1 UNK         0.0847 
     89 H89       -68.9884   27.5155  -74.2631 H         1 UNK         0.0847 
     90 H90       -68.3221   28.7680  -75.2989 H         1 UNK         0.0847 
     91 H91       -72.0987   27.6902  -76.2335 H         1 UNK         0.3141 
     92 H92       -72.7936   24.9007  -74.4784 H         1 UNK         0.0743 
     93 H93       -74.5770   27.2549  -73.6585 H         1 UNK         0.0784 
     94 H94       -75.1623   25.6066  -73.8666 H         1 UNK         0.0784 
     95 H95       -73.9680   25.9765  -72.6265 H         1 UNK         0.0784 
     96 H96       -74.4528   26.6515  -76.1406 H         1 UNK         0.3213 
     97 H97       -72.7398   26.0854  -79.0871 H         1 UNK         0.0855 
     98 H98       -75.2407   24.3782  -78.6331 H         1 UNK         0.0814 
     99 H99       -73.6923   23.7937  -79.2160 H         1 UNK         0.0814 
    100 H100      -74.6216   24.9212  -80.1882 H         1 UNK         0.0814 
    101 H101      -75.4773   26.8718  -78.6119 H         1 UNK         0.3105 
    102 H102      -74.7840   30.0876  -77.3514 H         1 UNK         0.0547 
    103 H103      -74.2412   30.5224  -79.7572 H         1 UNK         0.0837 
    104 H104      -75.5871   29.5055  -80.2529 H         1 UNK         0.0837 
    105 H105      -75.8837   31.0047  -79.3709 H         1 UNK         0.0837 
    106 H106      -77.2256   29.2027  -78.3218 H         1 UNK         0.3020 
    107 H107      -78.4309   28.2285  -75.3582 H         1 UNK         0.1245 
    108 H108      -80.2852   28.1024  -77.0297 H         1 UNK         0.0781 
    109 H109      -79.1432   28.0498  -78.3343 H         1 UNK         0.0781 
    110 H110      -81.3344   30.2667  -76.0687 H         1 UNK         0.0836 
    111 H111      -80.5704   31.8380  -76.0786 H         1 UNK         0.0836 
    112 H112      -78.7401   26.0624  -75.3640 H         1 UNK         0.3022 
    113 H113      -78.0583   23.4154  -77.6176 H         1 UNK         0.0747 
    114 H114      -76.7532   22.5200  -75.7174 H         1 UNK         0.0793 
    115 H115      -75.8444   23.8061  -76.4898 H         1 UNK         0.0793 
    116 H116      -76.6713   24.1126  -74.9745 H         1 UNK         0.0793 
    117 H117      -79.0161   23.4305  -74.9320 H         1 UNK         0.3047 
    118 H118      -82.1929   24.0634  -75.2334 H         1 UNK         0.0822 
    119 H119      -83.3094   21.8371  -75.5033 H         1 UNK         0.0807 
    120 H120      -81.9102   21.2306  -76.3880 H         1 UNK         0.0807 
    121 H121      -82.8994   22.5176  -77.0662 H         1 UNK         0.0807 
    122 H122      -80.1346   22.2735  -74.1911 H         1 UNK         0.2946 
    123 H123      -81.6060   22.1905  -70.9480 H         1 UNK         0.1144 
    124 H124      -81.2083   20.0763  -72.1890 H         1 UNK         0.0793 
    125 H125      -79.9161   20.3994  -71.0462 H         1 UNK         0.0793 
    126 H126      -79.6583   20.6634  -72.7656 H         1 UNK         0.0793 
    127 H127      -80.0231   23.6710  -70.5781 H         1 UNK         0.2896 
@<TRIPOS>BOND
     1    1    2 1    
     2    1   67 1    
     3    1   68 1    
     4    1   69 1    
     5    2    3 2    
     6    2    4 am   BACKBONE|DICT|INTERRES
     7    4    5 1    
     8    4   70 1    
     9    5    6 1    
    10    5   65 1    
    11    5   71 1    
    12    6    7 1    
    13    6   72 1    
    14    6   73 1    
    15    7    8 1    
    16    8    9 1    
    17    8   74 1    
    18    8   75 1    
    19    9   10 ar   
    20    9   14 ar   
    21   10   11 ar   
    22   10   76 1    
    23   11   12 ar   
    24   11   48 1    
    25   12   13 ar   
    26   12   77 1    
    27   13   14 ar   
    28   13   15 1    
    29   14   78 1    
    30   15   16 1    
    31   15   79 1    
    32   15   80 1    
    33   16   17 1    
    34   17   18 1    
    35   17   81 1    
    36   17   82 1    
    37   18   19 1    
    38   18   22 1    
    39   18   83 1    
    40   19   20 am   BACKBONE|DICT|INTERRES
    41   19   21 2    
    42   20   84 1    
    43   20   85 1    
    44   22   23 am   BACKBONE|DICT|INTERRES
    45   22   86 1    
    46   23   24 2    
    47   23   25 1    
    48   25   26 1    
    49   25   27 1    
    50   25   87 1    
    51   26   88 1    
    52   26   89 1    
    53   26   90 1    
    54   27   28 am   BACKBONE|DICT|INTERRES
    55   27   91 1    
    56   28   29 2    
    57   28   30 1    
    58   30   31 1    
    59   30   32 1    
    60   30   92 1    
    61   31   93 1    
    62   31   94 1    
    63   31   95 1    
    64   32   33 am   BACKBONE|DICT|INTERRES
    65   32   96 1    
    66   33   34 2    
    67   33   35 1    
    68   35   36 1    
    69   35   37 1    
    70   35   97 1    
    71   36   98 1    
    72   36   99 1    
    73   36  100 1    
    74   37   38 am   BACKBONE|DICT|INTERRES
    75   37  101 1    
    76   38   39 2    
    77   38   40 1    
    78   40   41 1    
    79   40   42 1    
    80   40  102 1    
    81   41  103 1    
    82   41  104 1    
    83   41  105 1    
    84   42   43 am   BACKBONE|DICT|INTERRES
    85   42  106 1    
    86   43   44 2    
    87   43   45 1    
    88   45   46 1    
    89   45   49 1    
    90   45  107 1    
    91   46   47 1    
    92   46  108 1    
    93   46  109 1    
    94   47   48 1    
    95   48  110 1    
    96   48  111 1    
    97   49   50 am   BACKBONE|DICT|INTERRES
    98   49  112 1    
    99   50   51 2    
   100   50   52 1    
   101   52   53 1    
   102   52   54 1    
   103   52  113 1    
   104   53  114 1    
   105   53  115 1    
   106   53  116 1    
   107   54   55 am   BACKBONE|DICT|INTERRES
   108   54  117 1    
   109   55   56 2    
   110   55   57 1    
   111   57   58 1    
   112   57   59 1    
   113   57  118 1    
   114   58  119 1    
   115   58  120 1    
   116   58  121 1    
   117   59   60 am   BACKBONE|DICT|INTERRES
   118   59  122 1    
   119   60   61 2    
   120   60   62 1    
   121   62   63 1    
   122   62   64 1    
   123   62  123 1    
   124   63  124 1    
   125   63  125 1    
   126   63  126 1    
   127   64   65 am   BACKBONE|DICT|INTERRES
   128   64  127 1    
   129   65   66 2    
@<TRIPOS>SUBSTRUCTURE
     1 UNK         1 GROUP             0       ****    0 ROOT    
