@<TRIPOS>MOLECULE
3R135
127   129    1
SMALL
USER_CHARGES


@<TRIPOS>ATOM
      1 CA        -82.2102   26.2712  -69.5179 C.3       0 UNK        -0.1998 
      2 C         -82.9085   26.3065  -70.8689 C.2       0 UNK         0.4909 
      3 O         -83.9603   25.6879  -71.0322 O.2       0 UNK        -0.5240 
      4 N         -82.3288   27.0289  -71.8371 N.am      1 UNK        -0.4739 
      5 CA        -82.8465   27.1955  -73.2049 C.3       1 UNK         0.0864 
      6 C6        -82.0983   28.2999  -74.0021 C.3       11 UNK        -0.0881 
      7 S7        -81.9117   29.8703  -73.0847 S.3       11 UNK        -0.2682 
      8 C8        -80.3193   30.5005  -73.7325 C.3       11 UNK         0.0289 
      9 C9        -79.0506   29.9040  -73.1129 C.ar      11 UNK        -0.0687 
     10 C10       -79.0315   28.6615  -72.4690 C.ar      11 UNK        -0.0823 
     11 C11       -77.8497   28.1333  -71.9473 C.ar      11 UNK        -0.0830 
     12 C12       -76.6599   28.8568  -72.0750 C.ar      11 UNK        -0.1021 
     13 C13       -76.6564   30.1069  -72.7045 C.ar      11 UNK        -0.0753 
     14 C14       -77.8537   30.6210  -73.2157 C.ar      11 UNK        -0.0933 
     15 C15       -75.3707   30.9197  -72.8053 C.3       11 UNK         0.0166 
     16 S16       -74.9038   31.2562  -74.5336 S.3       11 UNK        -0.2615 
     17 C17       -73.4216   32.3005  -74.3184 C.3       11 UNK        -0.0865 
     18 CA        -72.1342   31.6488  -74.8906 C.3       10 UNK         0.0862 
     19 C         -70.9525   32.6636  -74.8825 C.2       10 UNK         0.5551 
     20 N         -69.8773   32.4314  -74.1391 N.am      10 UNK        -0.7319 
     21 O         -71.0141   33.6811  -75.5685 O.2       10 UNK        -0.5018 
     22 N         -71.8450   30.3572  -74.2449 N.am      10 UNK        -0.4509 
     23 C         -71.0573   29.4004  -74.7524 C.2       10 UNK         0.4899 
     24 O         -70.4583   29.5008  -75.8243 O.2       10 UNK        -0.4839 
     25 CA        -70.8866   28.1190  -73.9228 C.3       9 UNK         0.0222 
     26 CB        -71.6582   28.1107  -72.5847 C.3       9 UNK        -0.1966 
     27 N         -71.2899   26.9672  -74.7287 N.am      9 UNK        -0.4218 
     28 C         -70.6600   25.7845  -74.7446 C.2       9 UNK         0.5020 
     29 O         -69.6300   25.5606  -74.1053 O.2       9 UNK        -0.5274 
     30 CA        -71.2639   24.6328  -75.5759 C.3       8 UNK         0.0270 
     31 CB        -71.7110   23.4857  -74.6532 C.3       8 UNK        -0.1976 
     32 N         -72.3968   25.0226  -76.4169 N.am      8 UNK        -0.4313 
     33 C         -72.3034   25.6665  -77.5873 C.2       8 UNK         0.5041 
     34 O         -71.2353   25.9616  -78.1242 O.2       8 UNK        -0.5577 
     35 CA        -73.6285   26.0796  -78.2556 C.3       7 UNK         0.0284 
     36 CB        -74.1690   24.9454  -79.1407 C.3       7 UNK        -0.1958 
     37 N         -74.6584   26.4816  -77.2916 N.am      7 UNK        -0.4454 
     38 C         -74.5447   27.5136  -76.4426 C.2       7 UNK         0.5089 
     39 O         -73.5732   28.2650  -76.4118 O.2       7 UNK        -0.5125 
     40 CA        -75.6686   27.6947  -75.4147 C.3       6 UNK         0.0408 
     41 CB        -76.8914   28.3886  -76.0358 C.3       6 UNK        -0.1791 
     42 N         -76.0603   26.4166  -74.8248 N.am      6 UNK        -0.4762 
     43 C         -75.3278   25.7379  -73.9288 C.2       6 UNK         0.5007 
     44 O         -74.2620   26.1410  -73.4670 O.2       6 UNK        -0.5032 
     45 CA        -75.8565   24.3536  -73.5011 C.3       5 UNK         0.0783 
     46 C46       -76.6952   24.4179  -72.2014 C.3       11 UNK        -0.0857 
     47 S47       -78.2362   25.4002  -72.3245 S.3       11 UNK        -0.2512 
     48 C48       -77.8873   26.8030  -71.2076 C.3       11 UNK         0.0225 
     49 N         -76.5618   23.6645  -74.5852 N.am      5 UNK        -0.4615 
     50 C         -75.9704   23.2126  -75.7002 C.2       4 UNK         0.5053 
     51 O         -74.7625   23.3015  -75.9162 O.2       4 UNK        -0.5105 
     52 CA        -76.8906   22.6139  -76.7767 C.3       4 UNK         0.0263 
     53 CB        -77.1875   21.1367  -76.4764 C.3       4 UNK        -0.1981 
     54 N         -78.1500   23.3497  -76.9123 N.am      4 UNK        -0.4224 
     55 C         -78.2553   24.6364  -77.2661 C.2       3 UNK         0.4895 
     56 O         -77.2895   25.3327  -77.5766 O.2       3 UNK        -0.5091 
     57 CA        -79.6516   25.2792  -77.2108 C.3       3 UNK         0.0250 
     58 CB        -80.4360   25.0230  -78.5117 C.3       3 UNK        -0.1996 
     59 N         -80.4358   24.9238  -76.0166 N.am      3 UNK        -0.4254 
     60 C         -80.9720   23.7422  -75.6718 C.2       2 UNK         0.5004 
     61 O         -80.8512   22.7168  -76.3431 O.2       2 UNK        -0.5226 
     62 CA        -81.7291   23.6686  -74.3323 C.3       2 UNK         0.0269 
     63 CB        -81.0071   22.7229  -73.3567 C.3       2 UNK        -0.1926 
     64 N         -81.9064   24.9709  -73.6810 N.am      2 UNK        -0.4687 
     65 C         -82.8372   25.8789  -74.0128 C.2       1 UNK         0.5165 
     66 O         -83.6494   25.7188  -74.9244 O.2       1 UNK        -0.5079 
     67 H67       -82.8744   26.6514  -68.7423 H         1 UNK         0.0900 
     68 H68       -81.3019   26.8735  -69.5113 H         1 UNK         0.0900 
     69 H69       -81.9393   25.2470  -69.2630 H         1 UNK         0.0900 
     70 H70       -81.5057   27.5675  -71.6162 H         1 UNK         0.2959 
     71 H71       -83.8918   27.4997  -73.1135 H         1 UNK         0.1079 
     72 H72       -81.1128   27.9516  -74.3158 H         1 UNK         0.0837 
     73 H73       -82.6373   28.5204  -74.9259 H         1 UNK         0.0837 
     74 H74       -80.3128   31.5799  -73.5730 H         1 UNK         0.0685 
     75 H75       -80.2883   30.3531  -74.8130 H         1 UNK         0.0685 
     76 H76       -79.9318   28.0839  -72.3645 H         1 UNK         0.1434 
     77 H77       -75.7404   28.4532  -71.6734 H         1 UNK         0.1329 
     78 H78       -77.8475   31.5849  -73.7065 H         1 UNK         0.1335 
     79 H79       -74.5475   30.4025  -72.3102 H         1 UNK         0.0680 
     80 H80       -75.5099   31.8648  -72.2785 H         1 UNK         0.0680 
     81 H81       -73.6240   33.2473  -74.8232 H         1 UNK         0.1032 
     82 H82       -73.2870   32.5493  -73.2642 H         1 UNK         0.1032 
     83 H83       -72.3259   31.4359  -75.9444 H         1 UNK         0.0461 
     84 H84       -69.1183   33.0946  -74.1454 H         1 UNK         0.3453 
     85 H85       -69.8162   31.5979  -73.5774 H         1 UNK         0.3453 
     86 H86       -72.3018   30.1901  -73.3621 H         1 UNK         0.2984 
     87 H87       -69.8204   28.0549  -73.6964 H         1 UNK         0.0554 
     88 H88       -71.4903   27.1792  -72.0437 H         1 UNK         0.0847 
     89 H89       -72.7345   28.2086  -72.7337 H         1 UNK         0.0847 
     90 H90       -71.3313   28.9192  -71.9297 H         1 UNK         0.0847 
     91 H91       -72.0968   27.1121  -75.3262 H         1 UNK         0.3141 
     92 H92       -70.4700   24.2548  -76.2235 H         1 UNK         0.0743 
     93 H93       -72.4987   23.8056  -73.9703 H         1 UNK         0.0784 
     94 H94       -72.0874   22.6380  -75.2264 H         1 UNK         0.0784 
     95 H95       -70.8810   23.1211  -74.0465 H         1 UNK         0.0784 
     96 H96       -73.3182   24.7428  -76.0949 H         1 UNK         0.3213 
     97 H97       -73.4209   26.9422  -78.8922 H         1 UNK         0.0855 
     98 H98       -74.3968   24.0525  -78.5581 H         1 UNK         0.0814 
     99 H99       -73.4389   24.6622  -79.8999 H         1 UNK         0.0814 
    100 H100      -75.0789   25.2463  -79.6605 H         1 UNK         0.0814 
    101 H101      -75.5226   25.9440  -77.2862 H         1 UNK         0.3105 
    102 H102      -75.2888   28.3298  -74.6133 H         1 UNK         0.0547 
    103 H103      -76.6318   29.3925  -76.3730 H         1 UNK         0.0837 
    104 H104      -77.2805   27.8492  -76.8984 H         1 UNK         0.0837 
    105 H105      -77.6981   28.4908  -75.3109 H         1 UNK         0.0837 
    106 H106      -76.9107   25.9960  -75.1672 H         1 UNK         0.3020 
    107 H107      -74.9714   23.7538  -73.2756 H         1 UNK         0.1245 
    108 H108      -76.0738   24.7813  -71.3821 H         1 UNK         0.0781 
    109 H109      -76.9784   23.4058  -71.9080 H         1 UNK         0.0781 
    110 H110      -76.9596   26.6512  -70.6557 H         1 UNK         0.0836 
    111 H111      -78.6723   26.8425  -70.4511 H         1 UNK         0.0836 
    112 H112      -77.5604   23.5648  -74.4820 H         1 UNK         0.3022 
    113 H113      -76.3659   22.6727  -77.7324 H         1 UNK         0.0747 
    114 H114      -77.7708   20.6800  -77.2762 H         1 UNK         0.0793 
    115 H115      -76.2635   20.5642  -76.3828 H         1 UNK         0.0793 
    116 H116      -77.7435   21.0157  -75.5457 H         1 UNK         0.0793 
    117 H117      -79.0134   22.8573  -76.6944 H         1 UNK         0.3047 
    118 H118      -79.4897   26.3562  -77.1406 H         1 UNK         0.0822 
    119 H119      -81.3998   25.5319  -78.4993 H         1 UNK         0.0807 
    120 H120      -80.6195   23.9615  -78.6797 H         1 UNK         0.0807 
    121 H121      -79.8842   25.3949  -79.3761 H         1 UNK         0.0807 
    122 H122      -80.5696   25.6762  -75.3573 H         1 UNK         0.2946 
    123 H123      -82.7148   23.2495  -74.5480 H         1 UNK         0.1144 
    124 H124      -81.5568   22.6242  -72.4205 H         1 UNK         0.0793 
    125 H125      -80.0020   23.0725  -73.1204 H         1 UNK         0.0793 
    126 H126      -80.9116   21.7216  -73.7792 H         1 UNK         0.0793 
    127 H127      -81.2862   25.1833  -72.9121 H         1 UNK         0.2896 
@<TRIPOS>BOND
     1    1    2 1    
     2    1   67 1    
     3    1   68 1    
     4    1   69 1    
     5    2    3 2    
     6    2    4 am   BACKBONE|DICT|INTERRES
     7    4    5 1    
     8    4   70 1    
     9    5    6 1    
    10    5   65 1    
    11    5   71 1    
    12    6    7 1    
    13    6   72 1    
    14    6   73 1    
    15    7    8 1    
    16    8    9 1    
    17    8   74 1    
    18    8   75 1    
    19    9   10 ar   
    20    9   14 ar   
    21   10   11 ar   
    22   10   76 1    
    23   11   12 ar   
    24   11   48 1    
    25   12   13 ar   
    26   12   77 1    
    27   13   14 ar   
    28   13   15 1    
    29   14   78 1    
    30   15   16 1    
    31   15   79 1    
    32   15   80 1    
    33   16   17 1    
    34   17   18 1    
    35   17   81 1    
    36   17   82 1    
    37   18   19 1    
    38   18   22 1    
    39   18   83 1    
    40   19   20 am   BACKBONE|DICT|INTERRES
    41   19   21 2    
    42   20   84 1    
    43   20   85 1    
    44   22   23 am   BACKBONE|DICT|INTERRES
    45   22   86 1    
    46   23   24 2    
    47   23   25 1    
    48   25   26 1    
    49   25   27 1    
    50   25   87 1    
    51   26   88 1    
    52   26   89 1    
    53   26   90 1    
    54   27   28 am   BACKBONE|DICT|INTERRES
    55   27   91 1    
    56   28   29 2    
    57   28   30 1    
    58   30   31 1    
    59   30   32 1    
    60   30   92 1    
    61   31   93 1    
    62   31   94 1    
    63   31   95 1    
    64   32   33 am   BACKBONE|DICT|INTERRES
    65   32   96 1    
    66   33   34 2    
    67   33   35 1    
    68   35   36 1    
    69   35   37 1    
    70   35   97 1    
    71   36   98 1    
    72   36   99 1    
    73   36  100 1    
    74   37   38 am   BACKBONE|DICT|INTERRES
    75   37  101 1    
    76   38   39 2    
    77   38   40 1    
    78   40   41 1    
    79   40   42 1    
    80   40  102 1    
    81   41  103 1    
    82   41  104 1    
    83   41  105 1    
    84   42   43 am   BACKBONE|DICT|INTERRES
    85   42  106 1    
    86   43   44 2    
    87   43   45 1    
    88   45   46 1    
    89   45   49 1    
    90   45  107 1    
    91   46   47 1    
    92   46  108 1    
    93   46  109 1    
    94   47   48 1    
    95   48  110 1    
    96   48  111 1    
    97   49   50 am   BACKBONE|DICT|INTERRES
    98   49  112 1    
    99   50   51 2    
   100   50   52 1    
   101   52   53 1    
   102   52   54 1    
   103   52  113 1    
   104   53  114 1    
   105   53  115 1    
   106   53  116 1    
   107   54   55 am   BACKBONE|DICT|INTERRES
   108   54  117 1    
   109   55   56 2    
   110   55   57 1    
   111   57   58 1    
   112   57   59 1    
   113   57  118 1    
   114   58  119 1    
   115   58  120 1    
   116   58  121 1    
   117   59   60 am   BACKBONE|DICT|INTERRES
   118   59  122 1    
   119   60   61 2    
   120   60   62 1    
   121   62   63 1    
   122   62   64 1    
   123   62  123 1    
   124   63  124 1    
   125   63  125 1    
   126   63  126 1    
   127   64   65 am   BACKBONE|DICT|INTERRES
   128   64  127 1    
   129   65   66 2    
@<TRIPOS>SUBSTRUCTURE
     1 UNK         1 GROUP             0       ****    0 ROOT    
