@<TRIPOS>MOLECULE
3R135
127   129    1
SMALL
USER_CHARGES


@<TRIPOS>ATOM
      1 CA        -78.6259   28.9878  -74.7866 C.3       0 UNK        -0.1998 
      2 C         -79.9268   29.6115  -75.2832 C.2       0 UNK         0.4909 
      3 O         -79.8985   30.3981  -76.2276 O.2       0 UNK        -0.5240 
      4 N         -81.0840   29.3070  -74.6814 N.am      1 UNK        -0.4739 
      5 CA        -81.2758   28.3293  -73.6049 C.3       1 UNK         0.0864 
      6 C6        -82.4690   28.6943  -72.6891 C.3       11 UNK        -0.0881 
      7 S7        -82.2603   30.3222  -71.8911 S.3       11 UNK        -0.2682 
      8 C8        -81.5426   29.8658  -70.2806 C.3       11 UNK         0.0289 
      9 C9        -80.1064   29.3759  -70.4086 C.ar      11 UNK        -0.0687 
     10 C10       -79.8054   28.0163  -70.2745 C.ar      11 UNK        -0.0823 
     11 C11       -78.4849   27.5641  -70.3704 C.ar      11 UNK        -0.0830 
     12 C12       -77.4603   28.5014  -70.5481 C.ar      11 UNK        -0.1021 
     13 C13       -77.7490   29.8540  -70.7428 C.ar      11 UNK        -0.0753 
     14 C14       -79.0758   30.2866  -70.6607 C.ar      11 UNK        -0.0933 
     15 C15       -76.6326   30.8430  -71.0571 C.3       11 UNK         0.0166 
     16 S16       -75.8162   30.4654  -72.6484 S.3       11 UNK        -0.2615 
     17 C17       -74.4443   29.3714  -72.1336 C.3       11 UNK        -0.0865 
     18 CA        -73.0990   29.7762  -72.7939 C.3       10 UNK         0.0862 
     19 C         -71.8774   29.1690  -72.0374 C.2       10 UNK         0.5551 
     20 N         -70.9283   28.5092  -72.6904 N.am      10 UNK        -0.7319 
     21 O         -71.7796   29.3124  -70.8211 O.2       10 UNK        -0.5018 
     22 N         -73.1151   29.4987  -74.2396 N.am      10 UNK        -0.4509 
     23 C         -72.3822   30.1395  -75.1575 C.2       10 UNK         0.4899 
     24 O         -71.6781   31.1204  -74.9111 O.2       10 UNK        -0.4839 
     25 CA        -72.4251   29.5499  -76.5826 C.3       9 UNK         0.0222 
     26 CB        -71.3988   30.1958  -77.5366 C.3       9 UNK        -0.1966 
     27 N         -72.2879   28.0870  -76.5888 N.am      9 UNK        -0.4218 
     28 C         -71.2866   27.3593  -76.0681 C.2       9 UNK         0.5020 
     29 O         -70.2863   27.8535  -75.5463 O.2       9 UNK        -0.5274 
     30 CA        -71.4273   25.8245  -76.0697 C.3       8 UNK         0.0270 
     31 CB        -71.6008   25.3105  -74.6302 C.3       8 UNK        -0.1976 
     32 N         -72.5374   25.3282  -76.8867 N.am      8 UNK        -0.4313 
     33 C         -72.5389   25.2765  -78.2255 C.2       8 UNK         0.5041 
     34 O         -71.5715   25.5807  -78.9242 O.2       8 UNK        -0.5577 
     35 CA        -73.8551   24.8511  -78.9000 C.3       7 UNK         0.0284 
     36 CB        -73.9670   23.3193  -78.9560 C.3       7 UNK        -0.1958 
     37 N         -75.0420   25.4130  -78.2454 N.am      7 UNK        -0.4454 
     38 C         -75.3142   26.7240  -78.1582 C.2       7 UNK         0.5089 
     39 O         -74.6118   27.6042  -78.6544 O.2       7 UNK        -0.5125 
     40 CA        -76.5405   27.1296  -77.3265 C.3       6 UNK         0.0408 
     41 CB        -77.8426   26.9250  -78.1156 C.3       6 UNK        -0.1791 
     42 N         -76.6118   26.4072  -76.0572 N.am      6 UNK        -0.4762 
     43 C         -75.7274   26.5235  -75.0573 C.2       6 UNK         0.5007 
     44 O         -74.7734   27.3012  -75.0712 O.2       6 UNK        -0.5032 
     45 CA        -75.9183   25.5917  -73.8466 C.3       5 UNK         0.0783 
     46 C46       -76.9346   26.1854  -72.8435 C.3       11 UNK        -0.0857 
     47 S47       -76.7142   25.4812  -71.1751 S.3       11 UNK        -0.2512 
     48 C48       -78.2019   26.0629  -70.2777 C.3       11 UNK         0.0225 
     49 N         -76.2827   24.2345  -74.2602 N.am      5 UNK        -0.4615 
     50 C         -75.4919   23.4092  -74.9582 C.2       4 UNK         0.5053 
     51 O         -74.3446   23.6882  -75.3030 O.2       4 UNK        -0.5105 
     52 CA        -76.1038   22.0631  -75.3788 C.3       4 UNK         0.0263 
     53 CB        -76.0416   21.0541  -74.2212 C.3       4 UNK        -0.1981 
     54 N         -77.4871   22.1978  -75.8437 N.am      4 UNK        -0.4224 
     55 C         -77.8487   22.8553  -76.9552 C.2       3 UNK         0.4895 
     56 O         -77.0510   23.3767  -77.7341 O.2       3 UNK        -0.5091 
     57 CA        -79.3589   23.0013  -77.2135 C.3       3 UNK         0.0250 
     58 CB        -79.9159   21.7424  -77.8971 C.3       3 UNK        -0.1996 
     59 N         -80.1427   23.2995  -76.0070 N.am      3 UNK        -0.4254 
     60 C         -79.9491   24.3695  -75.2235 C.2       2 UNK         0.5004 
     61 O         -79.0487   25.1907  -75.4040 O.2       2 UNK        -0.5226 
     62 CA        -80.8751   24.5207  -74.0042 C.3       2 UNK         0.0269 
     63 CB        -80.3882   23.6206  -72.8558 C.3       2 UNK        -0.1926 
     64 N         -80.9193   25.9072  -73.5276 N.am      2 UNK        -0.4687 
     65 C         -81.4651   26.9251  -74.2068 C.2       1 UNK         0.5165 
     66 O         -82.1101   26.7863  -75.2496 O.2       1 UNK        -0.5079 
     67 H67       -78.4281   29.2721  -73.7535 H         1 UNK         0.0900 
     68 H68       -77.7823   29.3283  -75.3861 H         1 UNK         0.0900 
     69 H69       -78.6674   27.9021  -74.8545 H         1 UNK         0.0900 
     70 H70       -81.9347   29.7177  -75.0374 H         1 UNK         0.2959 
     71 H71       -80.3818   28.3089  -72.9826 H         1 UNK         0.1079 
     72 H72       -83.3978   28.7178  -73.2628 H         1 UNK         0.0837 
     73 H73       -82.6132   27.9364  -71.9165 H         1 UNK         0.0837 
     74 H74       -81.5629   30.7411  -69.6296 H         1 UNK         0.0685 
     75 H75       -82.1716   29.1162  -69.7978 H         1 UNK         0.0685 
     76 H76       -80.6040   27.3081  -70.0990 H         1 UNK         0.1434 
     77 H77       -76.4327   28.1730  -70.5867 H         1 UNK         0.1329 
     78 H78       -79.3123   31.3336  -70.7942 H         1 UNK         0.1335 
     79 H79       -75.9091   30.8601  -70.2414 H         1 UNK         0.0680 
     80 H80       -77.0350   31.8551  -71.1203 H         1 UNK         0.0680 
     81 H81       -74.6929   28.3390  -72.3812 H         1 UNK         0.1032 
     82 H82       -74.3633   29.4045  -71.0462 H         1 UNK         0.1032 
     83 H83       -72.9910   30.8550  -72.6663 H         1 UNK         0.0461 
     84 H84       -70.1500   28.1380  -72.1699 H         1 UNK         0.3453 
     85 H85       -70.9412   28.4207  -73.6992 H         1 UNK         0.3453 
     86 H86       -73.6731   28.7008  -74.5362 H         1 UNK         0.2984 
     87 H87       -73.4214   29.7632  -76.9727 H         1 UNK         0.0554 
     88 H88       -71.4749   29.7781  -78.5405 H         1 UNK         0.0847 
     89 H89       -70.3753   30.0506  -77.1894 H         1 UNK         0.0847 
     90 H90       -71.5648   31.2705  -77.6198 H         1 UNK         0.0847 
     91 H91       -73.0810   27.5855  -76.9693 H         1 UNK         0.3141 
     92 H92       -70.4973   25.4142  -76.4684 H         1 UNK         0.0743 
     93 H93       -72.5094   25.7016  -74.1711 H         1 UNK         0.0784 
     94 H94       -71.6518   24.2219  -74.6003 H         1 UNK         0.0784 
     95 H95       -70.7623   25.6112  -74.0006 H         1 UNK         0.0784 
     96 H96       -73.3478   24.9739  -76.3843 H         1 UNK         0.3213 
     97 H97       -73.8358   25.2282  -79.9247 H         1 UNK         0.0855 
     98 H98       -74.0228   22.8813  -77.9591 H         1 UNK         0.0814 
     99 H99       -73.1025   22.8824  -79.4576 H         1 UNK         0.0814 
    100 H100      -74.8539   23.0069  -79.5076 H         1 UNK         0.0814 
    101 H101      -75.7050   24.7491  -77.8514 H         1 UNK         0.3105 
    102 H102      -76.4481   28.1934  -77.0987 H         1 UNK         0.0547 
    103 H103      -77.8251   27.4883  -79.0493 H         1 UNK         0.0837 
    104 H104      -78.0027   25.8770  -78.3691 H         1 UNK         0.0837 
    105 H105      -78.7082   27.2654  -77.5468 H         1 UNK         0.0837 
    106 H106      -77.4109   25.7883  -75.9250 H         1 UNK         0.3020 
    107 H107      -74.9434   25.5337  -73.3566 H         1 UNK         0.1245 
    108 H108      -76.8112   27.2661  -72.7766 H         1 UNK         0.0781 
    109 H109      -77.9601   26.0226  -73.1740 H         1 UNK         0.0781 
    110 H110      -79.0593   25.5005  -70.6492 H         1 UNK         0.0836 
    111 H111      -78.0954   25.7960  -69.2256 H         1 UNK         0.0836 
    112 H112      -77.2264   23.9443  -74.0567 H         1 UNK         0.3022 
    113 H113      -75.5071   21.6716  -76.2055 H         1 UNK         0.0747 
    114 H114      -76.3994   20.0722  -74.5316 H         1 UNK         0.0793 
    115 H115      -75.0162   20.9273  -73.8709 H         1 UNK         0.0793 
    116 H116      -76.6398   21.3758  -73.3677 H         1 UNK         0.0793 
    117 H117      -78.2103   21.7969  -75.2648 H         1 UNK         0.3047 
    118 H118      -79.4879   23.8425  -77.8979 H         1 UNK         0.0822 
    119 H119      -80.9581   21.8766  -78.1876 H         1 UNK         0.0807 
    120 H120      -79.8576   20.8677  -77.2481 H         1 UNK         0.0807 
    121 H121      -79.3566   21.5124  -78.8052 H         1 UNK         0.0807 
    122 H122      -80.8933   22.6604  -75.7863 H         1 UNK         0.2946 
    123 H123      -81.8854   24.2228  -74.2944 H         1 UNK         0.1144 
    124 H124      -80.3997   22.5695  -73.1471 H         1 UNK         0.0793 
    125 H125      -81.0287   23.7149  -71.9785 H         1 UNK         0.0793 
    126 H126      -79.3683   23.8622  -72.5540 H         1 UNK         0.0793 
    127 H127      -80.4080   26.1022  -72.6809 H         1 UNK         0.2896 
@<TRIPOS>BOND
     1    1    2 1    
     2    1   67 1    
     3    1   68 1    
     4    1   69 1    
     5    2    3 2    
     6    2    4 am   BACKBONE|DICT|INTERRES
     7    4    5 1    
     8    4   70 1    
     9    5    6 1    
    10    5   65 1    
    11    5   71 1    
    12    6    7 1    
    13    6   72 1    
    14    6   73 1    
    15    7    8 1    
    16    8    9 1    
    17    8   74 1    
    18    8   75 1    
    19    9   10 ar   
    20    9   14 ar   
    21   10   11 ar   
    22   10   76 1    
    23   11   12 ar   
    24   11   48 1    
    25   12   13 ar   
    26   12   77 1    
    27   13   14 ar   
    28   13   15 1    
    29   14   78 1    
    30   15   16 1    
    31   15   79 1    
    32   15   80 1    
    33   16   17 1    
    34   17   18 1    
    35   17   81 1    
    36   17   82 1    
    37   18   19 1    
    38   18   22 1    
    39   18   83 1    
    40   19   20 am   BACKBONE|DICT|INTERRES
    41   19   21 2    
    42   20   84 1    
    43   20   85 1    
    44   22   23 am   BACKBONE|DICT|INTERRES
    45   22   86 1    
    46   23   24 2    
    47   23   25 1    
    48   25   26 1    
    49   25   27 1    
    50   25   87 1    
    51   26   88 1    
    52   26   89 1    
    53   26   90 1    
    54   27   28 am   BACKBONE|DICT|INTERRES
    55   27   91 1    
    56   28   29 2    
    57   28   30 1    
    58   30   31 1    
    59   30   32 1    
    60   30   92 1    
    61   31   93 1    
    62   31   94 1    
    63   31   95 1    
    64   32   33 am   BACKBONE|DICT|INTERRES
    65   32   96 1    
    66   33   34 2    
    67   33   35 1    
    68   35   36 1    
    69   35   37 1    
    70   35   97 1    
    71   36   98 1    
    72   36   99 1    
    73   36  100 1    
    74   37   38 am   BACKBONE|DICT|INTERRES
    75   37  101 1    
    76   38   39 2    
    77   38   40 1    
    78   40   41 1    
    79   40   42 1    
    80   40  102 1    
    81   41  103 1    
    82   41  104 1    
    83   41  105 1    
    84   42   43 am   BACKBONE|DICT|INTERRES
    85   42  106 1    
    86   43   44 2    
    87   43   45 1    
    88   45   46 1    
    89   45   49 1    
    90   45  107 1    
    91   46   47 1    
    92   46  108 1    
    93   46  109 1    
    94   47   48 1    
    95   48  110 1    
    96   48  111 1    
    97   49   50 am   BACKBONE|DICT|INTERRES
    98   49  112 1    
    99   50   51 2    
   100   50   52 1    
   101   52   53 1    
   102   52   54 1    
   103   52  113 1    
   104   53  114 1    
   105   53  115 1    
   106   53  116 1    
   107   54   55 am   BACKBONE|DICT|INTERRES
   108   54  117 1    
   109   55   56 2    
   110   55   57 1    
   111   57   58 1    
   112   57   59 1    
   113   57  118 1    
   114   58  119 1    
   115   58  120 1    
   116   58  121 1    
   117   59   60 am   BACKBONE|DICT|INTERRES
   118   59  122 1    
   119   60   61 2    
   120   60   62 1    
   121   62   63 1    
   122   62   64 1    
   123   62  123 1    
   124   63  124 1    
   125   63  125 1    
   126   63  126 1    
   127   64   65 am   BACKBONE|DICT|INTERRES
   128   64  127 1    
   129   65   66 2    
@<TRIPOS>SUBSTRUCTURE
     1 UNK         1 GROUP             0       ****    0 ROOT    
