@<TRIPOS>MOLECULE
3R135
127   129    1
SMALL
USER_CHARGES


@<TRIPOS>ATOM
      1 CA        -83.0480   27.8744  -69.6200 C.3       0 UNK        -0.1998 
      2 C         -83.2509   27.5019  -71.0809 C.2       0 UNK         0.4909 
      3 O         -84.3628   27.1484  -71.4745 O.2       0 UNK        -0.5240 
      4 N         -82.1840   27.5768  -71.8872 N.am      1 UNK        -0.4739 
      5 CA        -82.1971   27.2564  -73.3222 C.3       1 UNK         0.0864 
      6 C6        -81.0061   27.9058  -74.0665 C.3       11 UNK        -0.0881 
      7 S7        -81.0754   29.7287  -74.0398 S.3       11 UNK        -0.2682 
      8 C8        -79.6843   30.1582  -72.9428 C.3       11 UNK         0.0289 
      9 C9        -78.3285   29.7831  -73.5295 C.ar      11 UNK        -0.0687 
     10 C10       -77.9095   30.3246  -74.7494 C.ar      11 UNK        -0.0823 
     11 C11       -76.6626   29.9891  -75.2860 C.ar      11 UNK        -0.0830 
     12 C12       -75.8129   29.1400  -74.5727 C.ar      11 UNK        -0.1021 
     13 C13       -76.2317   28.5704  -73.3676 C.ar      11 UNK        -0.0753 
     14 C14       -77.4873   28.8978  -72.8478 C.ar      11 UNK        -0.0933 
     15 C15       -75.3404   27.5728  -72.6497 C.3       11 UNK         0.0166 
     16 S16       -74.4084   28.3703  -71.3074 S.3       11 UNK        -0.2615 
     17 C17       -72.7623   27.6018  -71.4931 C.3       11 UNK        -0.0865 
     18 CA        -71.6666   28.6313  -71.8767 C.3       10 UNK         0.0862 
     19 C         -70.2494   27.9852  -71.8866 C.2       10 UNK         0.5551 
     20 N         -69.4366   28.1492  -72.9239 N.am      10 UNK        -0.7319 
     21 O         -69.8719   27.3247  -70.9221 O.2       10 UNK        -0.5018 
     22 N         -71.9956   29.3588  -73.1145 N.am      10 UNK        -0.4509 
     23 C         -71.7179   30.6525  -73.3267 C.2       10 UNK         0.4899 
     24 O         -71.2247   31.3936  -72.4743 O.2       10 UNK        -0.4839 
     25 CA        -72.0321   31.2113  -74.7321 C.3       9 UNK         0.0222 
     26 CB        -71.2622   32.5127  -75.0418 C.3       9 UNK        -0.1966 
     27 N         -71.8343   30.2335  -75.8094 N.am      9 UNK        -0.4218 
     28 C         -70.7198   29.5388  -76.0803 C.2       9 UNK         0.5020 
     29 O         -69.6586   29.6491  -75.4629 O.2       9 UNK        -0.5274 
     30 CA        -70.8417   28.4855  -77.1930 C.3       8 UNK         0.0270 
     31 CB        -69.6500   28.5575  -78.1636 C.3       8 UNK        -0.1976 
     32 N         -70.9471   27.1251  -76.6563 N.am      8 UNK        -0.4313 
     33 C         -71.8843   26.6899  -75.8043 C.2       8 UNK         0.5041 
     34 O         -72.7600   27.4048  -75.3034 O.2       8 UNK        -0.5577 
     35 CA        -71.8603   25.1979  -75.4622 C.3       7 UNK         0.0284 
     36 CB        -70.9984   24.9049  -74.2235 C.3       7 UNK        -0.1958 
     37 N         -73.2449   24.8162  -75.2257 N.am      7 UNK        -0.4454 
     38 C         -73.8047   23.6463  -75.5434 C.2       7 UNK         0.5089 
     39 O         -73.1672   22.6458  -75.8743 O.2       7 UNK        -0.5125 
     40 CA        -75.3452   23.5953  -75.5290 C.3       6 UNK         0.0408 
     41 CB        -75.8551   23.0689  -74.1786 C.3       6 UNK        -0.1791 
     42 N         -76.0011   24.8771  -75.8227 N.am      6 UNK        -0.4762 
     43 C         -75.8549   25.5998  -76.9443 C.2       6 UNK         0.5007 
     44 O         -75.1179   25.2795  -77.8784 O.2       6 UNK        -0.5032 
     45 CA        -76.7208   26.8697  -77.0540 C.3       5 UNK         0.0783 
     46 C46       -76.0549   27.9656  -77.9274 C.3       11 UNK        -0.0857 
     47 S47       -77.0147   29.5190  -77.9878 S.3       11 UNK        -0.2512 
     48 C48       -76.2557   30.5089  -76.6560 C.3       11 UNK         0.0225 
     49 N         -78.0556   26.4921  -77.5199 N.am      5 UNK        -0.4615 
     50 C         -78.9930   25.9666  -76.7221 C.2       4 UNK         0.5053 
     51 O         -78.8514   25.8591  -75.5024 O.2       4 UNK        -0.5105 
     52 CA        -80.3046   25.4802  -77.3684 C.3       4 UNK         0.0263 
     53 CB        -80.2679   25.3947  -78.9121 C.3       4 UNK        -0.1981 
     54 N         -80.7372   24.2101  -76.7738 N.am      4 UNK        -0.4224 
     55 C         -80.0811   23.0371  -76.8027 C.2       3 UNK         0.4895 
     56 O         -79.0436   22.8451  -77.4399 O.2       3 UNK        -0.5091 
     57 CA        -80.7021   21.8767  -75.9948 C.3       3 UNK         0.0250 
     58 CB        -79.6849   20.7627  -75.6614 C.3       3 UNK        -0.1996 
     59 N         -81.4149   22.3258  -74.7903 N.am      3 UNK        -0.4254 
     60 C         -80.8884   22.9431  -73.7215 C.2       2 UNK         0.5004 
     61 O         -79.6856   23.1459  -73.5493 O.2       2 UNK        -0.5226 
     62 CA        -81.8920   23.4478  -72.6709 C.3       2 UNK         0.0269 
     63 CB        -81.5779   22.8736  -71.2788 C.3       2 UNK        -0.1926 
     64 N         -81.9001   24.9107  -72.5995 N.am      2 UNK        -0.4687 
     65 C         -82.2515   25.7364  -73.5980 C.2       1 UNK         0.5165 
     66 O         -82.6255   25.3399  -74.7044 O.2       1 UNK        -0.5079 
     67 H67       -82.0200   28.1721  -69.4133 H         1 UNK         0.0900 
     68 H68       -83.7012   28.7041  -69.3508 H         1 UNK         0.0900 
     69 H69       -83.2913   27.0271  -68.9794 H         1 UNK         0.0900 
     70 H70       -81.2979   27.8837  -71.5137 H         1 UNK         0.2959 
     71 H71       -83.1156   27.6683  -73.7473 H         1 UNK         0.1079 
     72 H72       -81.0107   27.6134  -75.1170 H         1 UNK         0.0837 
     73 H73       -80.0560   27.5530  -73.6616 H         1 UNK         0.0837 
     74 H74       -79.8365   29.6845  -71.9720 H         1 UNK         0.0685 
     75 H75       -79.7013   31.2340  -72.7632 H         1 UNK         0.0685 
     76 H76       -78.5678   30.9878  -75.2941 H         1 UNK         0.1434 
     77 H77       -74.8465   28.8798  -74.9806 H         1 UNK         0.1329 
     78 H78       -77.8053   28.4615  -71.9109 H         1 UNK         0.1335 
     79 H79       -74.6660   27.1105  -73.3705 H         1 UNK         0.0680 
     80 H80       -75.9417   26.7622  -72.2354 H         1 UNK         0.0680 
     81 H81       -72.5193   27.1281  -70.5400 H         1 UNK         0.1032 
     82 H82       -72.7998   26.7934  -72.2221 H         1 UNK         0.1032 
     83 H83       -71.6338   29.3532  -71.0586 H         1 UNK         0.0461 
     84 H84       -69.6989   28.7217  -73.7195 H         1 UNK         0.3453 
     85 H85       -68.5226   27.7272  -72.8973 H         1 UNK         0.3453 
     86 H86       -72.3652   28.7985  -73.8764 H         1 UNK         0.2984 
     87 H87       -73.0970   31.4491  -74.7284 H         1 UNK         0.0554 
     88 H88       -71.5181   32.9010  -76.0275 H         1 UNK         0.0847 
     89 H89       -70.1829   32.3590  -75.0116 H         1 UNK         0.0847 
     90 H90       -71.5004   33.2927  -74.3175 H         1 UNK         0.0847 
     91 H91       -72.6606   30.0050  -76.3432 H         1 UNK         0.3141 
     92 H92       -71.7502   28.6847  -77.7654 H         1 UNK         0.0743 
     93 H93       -69.5445   29.5615  -78.5771 H         1 UNK         0.0784 
     94 H94       -68.7094   28.3092  -77.6698 H         1 UNK         0.0784 
     95 H95       -69.7788   27.8749  -79.0038 H         1 UNK         0.0784 
     96 H96       -70.2543   26.4671  -76.9832 H         1 UNK         0.3213 
     97 H97       -71.4703   24.6463  -76.3208 H         1 UNK         0.0855 
     98 H98       -71.3649   25.4243  -73.3400 H         1 UNK         0.0814 
     99 H99       -69.9662   25.2202  -74.3811 H         1 UNK         0.0814 
    100 H100      -70.9817   23.8384  -73.9988 H         1 UNK         0.0814 
    101 H101      -73.8462   25.6048  -75.0214 H         1 UNK         0.3105 
    102 H102      -75.6538   22.8923  -76.3054 H         1 UNK         0.0547 
    103 H103      -75.4118   22.1002  -73.9438 H         1 UNK         0.0837 
    104 H104      -75.6093   23.7477  -73.3612 H         1 UNK         0.0837 
    105 H105      -76.9373   22.9336  -74.1892 H         1 UNK         0.0837 
    106 H106      -76.7165   25.1745  -75.1692 H         1 UNK         0.3020 
    107 H107      -76.8226   27.2732  -76.0478 H         1 UNK         0.1245 
    108 H108      -75.9314   27.6128  -78.9530 H         1 UNK         0.0781 
    109 H109      -75.0493   28.1847  -77.5628 H         1 UNK         0.0781 
    110 H110      -76.5767   31.5463  -76.7611 H         1 UNK         0.0836 
    111 H111      -75.1706   30.5149  -76.7674 H         1 UNK         0.0836 
    112 H112      -78.2204   26.5433  -78.5140 H         1 UNK         0.3022 
    113 H113      -81.0663   26.2126  -77.0991 H         1 UNK         0.0747 
    114 H114      -81.2091   25.0089  -79.3039 H         1 UNK         0.0793 
    115 H115      -80.1203   26.3783  -79.3596 H         1 UNK         0.0793 
    116 H116      -79.4707   24.7426  -79.2707 H         1 UNK         0.0793 
    117 H117      -81.5374   24.2880  -76.1550 H         1 UNK         0.3047 
    118 H118      -81.4599   21.4382  -76.6459 H         1 UNK         0.0822 
    119 H119      -78.8409   21.1427  -75.0849 H         1 UNK         0.0807 
    120 H120      -79.2793   20.3192  -76.5715 H         1 UNK         0.0807 
    121 H121      -80.1482   19.9586  -75.0898 H         1 UNK         0.0807 
    122 H122      -82.4203   22.2241  -74.8277 H         1 UNK         0.2946 
    123 H123      -82.8964   23.1225  -72.9511 H         1 UNK         0.1144 
    124 H124      -81.5730   21.7830  -71.2998 H         1 UNK         0.0793 
    125 H125      -82.3237   23.1796  -70.5448 H         1 UNK         0.0793 
    126 H126      -80.5999   23.1964  -70.9192 H         1 UNK         0.0793 
    127 H127      -81.5901   25.3248  -71.7331 H         1 UNK         0.2896 
@<TRIPOS>BOND
     1    1    2 1    
     2    1   67 1    
     3    1   68 1    
     4    1   69 1    
     5    2    3 2    
     6    2    4 am   BACKBONE|DICT|INTERRES
     7    4    5 1    
     8    4   70 1    
     9    5    6 1    
    10    5   65 1    
    11    5   71 1    
    12    6    7 1    
    13    6   72 1    
    14    6   73 1    
    15    7    8 1    
    16    8    9 1    
    17    8   74 1    
    18    8   75 1    
    19    9   10 ar   
    20    9   14 ar   
    21   10   11 ar   
    22   10   76 1    
    23   11   12 ar   
    24   11   48 1    
    25   12   13 ar   
    26   12   77 1    
    27   13   14 ar   
    28   13   15 1    
    29   14   78 1    
    30   15   16 1    
    31   15   79 1    
    32   15   80 1    
    33   16   17 1    
    34   17   18 1    
    35   17   81 1    
    36   17   82 1    
    37   18   19 1    
    38   18   22 1    
    39   18   83 1    
    40   19   20 am   BACKBONE|DICT|INTERRES
    41   19   21 2    
    42   20   84 1    
    43   20   85 1    
    44   22   23 am   BACKBONE|DICT|INTERRES
    45   22   86 1    
    46   23   24 2    
    47   23   25 1    
    48   25   26 1    
    49   25   27 1    
    50   25   87 1    
    51   26   88 1    
    52   26   89 1    
    53   26   90 1    
    54   27   28 am   BACKBONE|DICT|INTERRES
    55   27   91 1    
    56   28   29 2    
    57   28   30 1    
    58   30   31 1    
    59   30   32 1    
    60   30   92 1    
    61   31   93 1    
    62   31   94 1    
    63   31   95 1    
    64   32   33 am   BACKBONE|DICT|INTERRES
    65   32   96 1    
    66   33   34 2    
    67   33   35 1    
    68   35   36 1    
    69   35   37 1    
    70   35   97 1    
    71   36   98 1    
    72   36   99 1    
    73   36  100 1    
    74   37   38 am   BACKBONE|DICT|INTERRES
    75   37  101 1    
    76   38   39 2    
    77   38   40 1    
    78   40   41 1    
    79   40   42 1    
    80   40  102 1    
    81   41  103 1    
    82   41  104 1    
    83   41  105 1    
    84   42   43 am   BACKBONE|DICT|INTERRES
    85   42  106 1    
    86   43   44 2    
    87   43   45 1    
    88   45   46 1    
    89   45   49 1    
    90   45  107 1    
    91   46   47 1    
    92   46  108 1    
    93   46  109 1    
    94   47   48 1    
    95   48  110 1    
    96   48  111 1    
    97   49   50 am   BACKBONE|DICT|INTERRES
    98   49  112 1    
    99   50   51 2    
   100   50   52 1    
   101   52   53 1    
   102   52   54 1    
   103   52  113 1    
   104   53  114 1    
   105   53  115 1    
   106   53  116 1    
   107   54   55 am   BACKBONE|DICT|INTERRES
   108   54  117 1    
   109   55   56 2    
   110   55   57 1    
   111   57   58 1    
   112   57   59 1    
   113   57  118 1    
   114   58  119 1    
   115   58  120 1    
   116   58  121 1    
   117   59   60 am   BACKBONE|DICT|INTERRES
   118   59  122 1    
   119   60   61 2    
   120   60   62 1    
   121   62   63 1    
   122   62   64 1    
   123   62  123 1    
   124   63  124 1    
   125   63  125 1    
   126   63  126 1    
   127   64   65 am   BACKBONE|DICT|INTERRES
   128   64  127 1    
   129   65   66 2    
@<TRIPOS>SUBSTRUCTURE
     1 UNK         1 GROUP             0       ****    0 ROOT    
