@<TRIPOS>MOLECULE
3R135
127   129    1
SMALL
USER_CHARGES


@<TRIPOS>ATOM
      1 CA        -80.8748   24.7562  -72.4027 C.3       0 UNK        -0.1998 
      2 C         -81.4694   25.8667  -73.2528 C.2       0 UNK         0.4909 
      3 O         -82.5497   25.6986  -73.8198 O.2       0 UNK        -0.5240 
      4 N         -80.7698   27.0043  -73.3476 N.am      1 UNK        -0.4739 
      5 CA        -81.2079   28.2301  -74.0327 C.3       1 UNK         0.0864 
      6 C6        -80.5065   29.4838  -73.4481 C.3       11 UNK        -0.0881 
      7 S7        -80.8799   29.7033  -71.6763 S.3       11 UNK        -0.2682 
      8 C8        -79.3049   30.3700  -71.0414 C.3       11 UNK         0.0289 
      9 C9        -78.1856   29.3413  -70.8740 C.ar      11 UNK        -0.0687 
     10 C10       -78.4395   28.0414  -70.4152 C.ar      11 UNK        -0.0823 
     11 C11       -77.3892   27.1482  -70.1698 C.ar      11 UNK        -0.0830 
     12 C12       -76.0726   27.5696  -70.3906 C.ar      11 UNK        -0.1021 
     13 C13       -75.8006   28.8651  -70.8380 C.ar      11 UNK        -0.0753 
     14 C14       -76.8615   29.7414  -71.0849 C.ar      11 UNK        -0.0933 
     15 C15       -74.3565   29.3335  -70.9689 C.3       11 UNK         0.0166 
     16 S16       -73.7081   29.1384  -72.6565 S.3       11 UNK        -0.2615 
     17 C17       -74.0475   30.7819  -73.3769 C.3       11 UNK        -0.0865 
     18 CA        -74.2774   30.7292  -74.9146 C.3       10 UNK         0.0862 
     19 C         -74.7613   32.0910  -75.5002 C.2       10 UNK         0.5551 
     20 N         -74.4421   32.4223  -76.7456 N.am      10 UNK        -0.7319 
     21 O         -75.4623   32.8472  -74.8312 O.2       10 UNK        -0.5018 
     22 N         -73.1603   30.1041  -75.6499 N.am      10 UNK        -0.4509 
     23 C         -71.9027   30.5619  -75.7298 C.2       10 UNK         0.4899 
     24 O         -71.5129   31.5956  -75.1822 O.2       10 UNK        -0.4839 
     25 CA        -70.9247   29.7296  -76.5878 C.3       9 UNK         0.0222 
     26 CB        -69.4668   30.2308  -76.4993 C.3       9 UNK        -0.1966 
     27 N         -70.9932   28.2879  -76.3193 N.am      9 UNK        -0.4218 
     28 C         -70.7600   27.6504  -75.1621 C.2       9 UNK         0.5020 
     29 O         -70.4115   28.2187  -74.1256 O.2       9 UNK        -0.5274 
     30 CA        -70.9327   26.1131  -75.1728 C.3       8 UNK         0.0270 
     31 CB        -70.9132   25.5084  -73.7556 C.3       8 UNK        -0.1976 
     32 N         -72.1639   25.6844  -75.8438 N.am      8 UNK        -0.4313 
     33 C         -72.3714   25.6475  -77.1689 C.2       8 UNK         0.5041 
     34 O         -71.5024   25.9259  -77.9964 O.2       8 UNK        -0.5577 
     35 CA        -73.7974   25.3236  -77.6550 C.3       7 UNK         0.0284 
     36 CB        -73.9104   23.8529  -78.0850 C.3       7 UNK        -0.1958 
     37 N         -74.8266   25.6377  -76.6567 N.am      7 UNK        -0.4454 
     38 C         -75.1055   26.8791  -76.2275 C.2       7 UNK         0.5089 
     39 O         -74.5738   27.8870  -76.6939 O.2       7 UNK        -0.5125 
     40 CA        -76.1185   27.0327  -75.0814 C.3       6 UNK         0.0408 
     41 CB        -77.4200   27.6606  -75.5954 C.3       6 UNK        -0.1791 
     42 N         -76.4290   25.7669  -74.4159 N.am      6 UNK        -0.4762 
     43 C         -75.6943   25.2089  -73.4422 C.2       6 UNK         0.5007 
     44 O         -74.6359   25.6777  -73.0266 O.2       6 UNK        -0.5032 
     45 CA        -76.2153   23.8685  -72.8787 C.3       5 UNK         0.0783 
     46 C46       -77.3111   24.0938  -71.8061 C.3       11 UNK        -0.0857 
     47 S47       -76.6165   24.4239  -70.1559 S.3       11 UNK        -0.2512 
     48 C48       -77.6893   25.7782  -69.5614 C.3       11 UNK         0.0225 
     49 N         -76.6874   22.9753  -73.9439 N.am      5 UNK        -0.4615 
     50 C         -75.9058   22.4623  -74.9038 C.2       4 UNK         0.5053 
     51 O         -74.6850   22.6111  -74.9317 O.2       4 UNK        -0.5105 
     52 CA        -76.5867   21.6819  -76.0459 C.3       4 UNK         0.0263 
     53 CB        -76.4697   20.1697  -75.7960 C.3       4 UNK        -0.1981 
     54 N         -77.9939   22.0165  -76.3136 N.am      4 UNK        -0.4224 
     55 C         -78.4929   23.2371  -76.5574 C.2       3 UNK         0.4895 
     56 O         -77.8308   24.2759  -76.4836 O.2       3 UNK        -0.5091 
     57 CA        -79.9830   23.3118  -76.9242 C.3       3 UNK         0.0250 
     58 CB        -80.8808   22.5691  -75.9127 C.3       3 UNK        -0.1996 
     59 N         -80.3742   24.7169  -76.9978 N.am      3 UNK        -0.4254 
     60 C         -81.3935   25.2208  -77.7008 C.2       2 UNK         0.5004 
     61 O         -82.1581   24.5393  -78.3864 O.2       2 UNK        -0.5226 
     62 CA        -81.6023   26.7376  -77.5740 C.3       2 UNK         0.0269 
     63 CB        -82.8779   27.2400  -78.2784 C.3       2 UNK        -0.1926 
     64 N         -81.6588   27.0851  -76.1548 N.am      2 UNK        -0.4687 
     65 C         -81.0570   28.1250  -75.5693 C.2       1 UNK         0.5165 
     66 O         -80.3943   28.9581  -76.1893 O.2       1 UNK        -0.5079 
     67 H67       -80.3778   25.1617  -71.5222 H         1 UNK         0.0900 
     68 H68       -80.1534   24.1808  -72.9800 H         1 UNK         0.0900 
     69 H69       -81.6563   24.0781  -72.0602 H         1 UNK         0.0900 
     70 H70       -79.8857   27.0811  -72.8660 H         1 UNK         0.2959 
     71 H71       -82.2788   28.3507  -73.8518 H         1 UNK         0.1079 
     72 H72       -79.4261   29.4229  -73.5898 H         1 UNK         0.0837 
     73 H73       -80.8334   30.3873  -73.9668 H         1 UNK         0.0837 
     74 H74       -79.4957   30.8204  -70.0659 H         1 UNK         0.0685 
     75 H75       -78.9849   31.1833  -71.6960 H         1 UNK         0.0685 
     76 H76       -79.4562   27.7389  -70.2047 H         1 UNK         0.1434 
     77 H77       -75.2492   26.9006  -70.1796 H         1 UNK         0.1329 
     78 H78       -76.6543   30.7542  -71.4001 H         1 UNK         0.1335 
     79 H79       -74.2627   30.3721  -70.6485 H         1 UNK         0.0680 
     80 H80       -73.7220   28.7578  -70.2932 H         1 UNK         0.0680 
     81 H81       -74.9264   31.2004  -72.8843 H         1 UNK         0.1032 
     82 H82       -73.2197   31.4501  -73.1311 H         1 UNK         0.1032 
     83 H83       -75.1255   30.0635  -75.0777 H         1 UNK         0.0461 
     84 H84       -73.8813   31.8031  -77.3086 H         1 UNK         0.3453 
     85 H85       -74.7652   33.2989  -77.1237 H         1 UNK         0.3453 
     86 H86       -73.4128   29.2489  -76.1401 H         1 UNK         0.2984 
     87 H87       -71.2499   29.8566  -77.6214 H         1 UNK         0.0554 
     88 H88       -68.8060   29.6478  -77.1421 H         1 UNK         0.0847 
     89 H89       -69.0798   30.1749  -75.4809 H         1 UNK         0.0847 
     90 H90       -69.3916   31.2714  -76.8169 H         1 UNK         0.0847 
     91 H91       -71.2487   27.7002  -77.1085 H         1 UNK         0.3141 
     92 H92       -70.0812   25.7030  -75.7211 H         1 UNK         0.0743 
     93 H93       -71.7250   25.9024  -73.1408 H         1 UNK         0.0784 
     94 H94       -71.0105   24.4230  -73.7845 H         1 UNK         0.0784 
     95 H95       -69.9761   25.7333  -73.2441 H         1 UNK         0.0784 
     96 H96       -72.9490   25.4806  -75.2396 H         1 UNK         0.3213 
     97 H97       -73.9904   25.9461  -78.5320 H         1 UNK         0.0855 
     98 H98       -73.6747   23.1713  -77.2674 H         1 UNK         0.0814 
     99 H99       -73.2140   23.6329  -78.8964 H         1 UNK         0.0814 
    100 H100      -74.9125   23.6199  -78.4476 H         1 UNK         0.0814 
    101 H101      -75.3299   24.8635  -76.2445 H         1 UNK         0.3105 
    102 H102      -75.6850   27.7146  -74.3480 H         1 UNK         0.0547 
    103 H103      -77.2350   28.6370  -76.0463 H         1 UNK         0.0837 
    104 H104      -77.9009   27.0397  -76.3520 H         1 UNK         0.0837 
    105 H105      -78.1265   27.8113  -74.7807 H         1 UNK         0.0837 
    106 H106      -77.2070   25.2435  -74.8015 H         1 UNK         0.3020 
    107 H107      -75.3647   23.3670  -72.4099 H         1 UNK         0.1245 
    108 H108      -77.9328   23.2025  -71.7035 H         1 UNK         0.0781 
    109 H109      -77.9871   24.9000  -72.0955 H         1 UNK         0.0781 
    110 H110      -77.5648   25.8584  -68.4803 H         1 UNK         0.0836 
    111 H111      -78.7314   25.5000  -69.7247 H         1 UNK         0.0836 
    112 H112      -77.6783   22.7914  -73.9847 H         1 UNK         0.3022 
    113 H113      -76.0319   21.9148  -76.9565 H         1 UNK         0.0747 
    114 H114      -76.8208   19.5957  -76.6538 H         1 UNK         0.0793 
    115 H115      -75.4323   19.8799  -75.6206 H         1 UNK         0.0793 
    116 H116      -77.0465   19.8595  -74.9236 H         1 UNK         0.0793 
    117 H117      -78.6226   21.2295  -76.3860 H         1 UNK         0.3047 
    118 H118      -80.0981   22.8602  -77.9119 H         1 UNK         0.0822 
    119 H119      -80.6710   21.4994  -75.8958 H         1 UNK         0.0807 
    120 H120      -81.9357   22.6768  -76.1663 H         1 UNK         0.0807 
    121 H121      -80.7472   22.9471  -74.9000 H         1 UNK         0.0807 
    122 H122      -79.7444   25.3473  -76.5187 H         1 UNK         0.2946 
    123 H123      -80.7381   27.2127  -78.0446 H         1 UNK         0.1144 
    124 H124      -82.8573   27.0023  -79.3431 H         1 UNK         0.0793 
    125 H125      -82.9778   28.3221  -78.1907 H         1 UNK         0.0793 
    126 H126      -83.7755   26.7855  -77.8571 H         1 UNK         0.0793 
    127 H127      -82.1457   26.4287  -75.5478 H         1 UNK         0.2896 
@<TRIPOS>BOND
     1    1    2 1    
     2    1   67 1    
     3    1   68 1    
     4    1   69 1    
     5    2    3 2    
     6    2    4 am   BACKBONE|DICT|INTERRES
     7    4    5 1    
     8    4   70 1    
     9    5    6 1    
    10    5   65 1    
    11    5   71 1    
    12    6    7 1    
    13    6   72 1    
    14    6   73 1    
    15    7    8 1    
    16    8    9 1    
    17    8   74 1    
    18    8   75 1    
    19    9   10 ar   
    20    9   14 ar   
    21   10   11 ar   
    22   10   76 1    
    23   11   12 ar   
    24   11   48 1    
    25   12   13 ar   
    26   12   77 1    
    27   13   14 ar   
    28   13   15 1    
    29   14   78 1    
    30   15   16 1    
    31   15   79 1    
    32   15   80 1    
    33   16   17 1    
    34   17   18 1    
    35   17   81 1    
    36   17   82 1    
    37   18   19 1    
    38   18   22 1    
    39   18   83 1    
    40   19   20 am   BACKBONE|DICT|INTERRES
    41   19   21 2    
    42   20   84 1    
    43   20   85 1    
    44   22   23 am   BACKBONE|DICT|INTERRES
    45   22   86 1    
    46   23   24 2    
    47   23   25 1    
    48   25   26 1    
    49   25   27 1    
    50   25   87 1    
    51   26   88 1    
    52   26   89 1    
    53   26   90 1    
    54   27   28 am   BACKBONE|DICT|INTERRES
    55   27   91 1    
    56   28   29 2    
    57   28   30 1    
    58   30   31 1    
    59   30   32 1    
    60   30   92 1    
    61   31   93 1    
    62   31   94 1    
    63   31   95 1    
    64   32   33 am   BACKBONE|DICT|INTERRES
    65   32   96 1    
    66   33   34 2    
    67   33   35 1    
    68   35   36 1    
    69   35   37 1    
    70   35   97 1    
    71   36   98 1    
    72   36   99 1    
    73   36  100 1    
    74   37   38 am   BACKBONE|DICT|INTERRES
    75   37  101 1    
    76   38   39 2    
    77   38   40 1    
    78   40   41 1    
    79   40   42 1    
    80   40  102 1    
    81   41  103 1    
    82   41  104 1    
    83   41  105 1    
    84   42   43 am   BACKBONE|DICT|INTERRES
    85   42  106 1    
    86   43   44 2    
    87   43   45 1    
    88   45   46 1    
    89   45   49 1    
    90   45  107 1    
    91   46   47 1    
    92   46  108 1    
    93   46  109 1    
    94   47   48 1    
    95   48  110 1    
    96   48  111 1    
    97   49   50 am   BACKBONE|DICT|INTERRES
    98   49  112 1    
    99   50   51 2    
   100   50   52 1    
   101   52   53 1    
   102   52   54 1    
   103   52  113 1    
   104   53  114 1    
   105   53  115 1    
   106   53  116 1    
   107   54   55 am   BACKBONE|DICT|INTERRES
   108   54  117 1    
   109   55   56 2    
   110   55   57 1    
   111   57   58 1    
   112   57   59 1    
   113   57  118 1    
   114   58  119 1    
   115   58  120 1    
   116   58  121 1    
   117   59   60 am   BACKBONE|DICT|INTERRES
   118   59  122 1    
   119   60   61 2    
   120   60   62 1    
   121   62   63 1    
   122   62   64 1    
   123   62  123 1    
   124   63  124 1    
   125   63  125 1    
   126   63  126 1    
   127   64   65 am   BACKBONE|DICT|INTERRES
   128   64  127 1    
   129   65   66 2    
@<TRIPOS>SUBSTRUCTURE
     1 UNK         1 GROUP             0       ****    0 ROOT    
