@<TRIPOS>MOLECULE
3R135
127   129    1
SMALL
USER_CHARGES


@<TRIPOS>ATOM
      1 CA        -83.3757   27.8356  -73.2437 C.3       0 UNK        -0.1998 
      2 C         -82.0795   27.3628  -72.5923 C.2       0 UNK         0.4909 
      3 O         -82.1282   26.5786  -71.6479 O.2       0 UNK        -0.5240 
      4 N         -80.8982   27.7985  -73.0524 N.am      1 UNK        -0.4739 
      5 CA        -80.6630   28.7244  -74.1722 C.3       1 UNK         0.0864 
      6 C6        -79.4207   29.6259  -73.9288 C.3       11 UNK        -0.0881 
      7 S7        -79.7121   30.7715  -72.5291 S.3       11 UNK        -0.2682 
      8 C8        -78.0642   30.9391  -71.7454 C.3       11 UNK         0.0289 
      9 C9        -77.4957   29.6813  -71.0834 C.ar      11 UNK        -0.0687 
     10 C10       -78.2718   28.5451  -70.8311 C.ar      11 UNK        -0.0823 
     11 C11       -77.6887   27.3729  -70.3445 C.ar      11 UNK        -0.0830 
     12 C12       -76.3282   27.3597  -70.0300 C.ar      11 UNK        -0.1021 
     13 C13       -75.5492   28.5055  -70.2139 C.ar      11 UNK        -0.0753 
     14 C14       -76.1414   29.6613  -70.7340 C.ar      11 UNK        -0.0933 
     15 C15       -74.0695   28.4833  -69.8580 C.3       11 UNK         0.0166 
     16 S16       -73.0082   28.4699  -71.3404 S.3       11 UNK        -0.2615 
     17 C17       -72.6868   30.2501  -71.6011 C.3       11 UNK        -0.0865 
     18 CA        -73.3319   30.8193  -72.8917 C.3       10 UNK         0.0862 
     19 C         -73.1947   32.3705  -72.9175 C.2       10 UNK         0.5551 
     20 N         -72.3748   32.9533  -73.7841 N.am      10 UNK        -0.7319 
     21 O         -73.8466   33.0535  -72.1318 O.2       10 UNK        -0.5018 
     22 N         -72.8448   30.1250  -74.0938 N.am      10 UNK        -0.4509 
     23 C         -73.3656   30.2413  -75.3204 C.2       10 UNK         0.4899 
     24 O         -74.3309   30.9555  -75.5928 O.2       10 UNK        -0.4839 
     25 CA        -72.7025   29.4257  -76.4414 C.3       9 UNK         0.0222 
     26 CB        -71.3721   30.0585  -76.8955 C.3       9 UNK        -0.1966 
     27 N         -72.5613   27.9969  -76.1331 N.am      9 UNK        -0.4218 
     28 C         -71.7657   27.3937  -75.2360 C.2       9 UNK         0.5020 
     29 O         -70.9659   28.0009  -74.5215 O.2       9 UNK        -0.5274 
     30 CA        -71.8850   25.8628  -75.0761 C.3       8 UNK         0.0270 
     31 CB        -72.4075   25.5142  -73.6721 C.3       8 UNK        -0.1976 
     32 N         -72.7485   25.2198  -76.0715 N.am      8 UNK        -0.4313 
     33 C         -72.4418   25.0358  -77.3630 C.2       8 UNK         0.5041 
     34 O         -71.3442   25.3049  -77.8516 O.2       8 UNK        -0.5577 
     35 CA        -73.5714   24.5190  -78.2739 C.3       7 UNK         0.0284 
     36 CB        -73.6315   22.9840  -78.2520 C.3       7 UNK        -0.1958 
     37 N         -74.8856   25.0750  -77.9264 N.am      7 UNK        -0.4454 
     38 C         -75.1980   26.3788  -77.9782 C.2       7 UNK         0.5089 
     39 O         -74.4234   27.2481  -78.3737 O.2       7 UNK        -0.5125 
     40 CA        -76.5800   26.7959  -77.4544 C.3       6 UNK         0.0408 
     41 CB        -77.6516   26.6448  -78.5434 C.3       6 UNK        -0.1791 
     42 N         -76.9491   26.0451  -76.2513 N.am      6 UNK        -0.4762 
     43 C         -76.4618   26.3149  -75.0298 C.2       6 UNK         0.5007 
     44 O         -75.7520   27.2895  -74.7857 O.2       6 UNK        -0.5032 
     45 CA        -76.7746   25.3167  -73.8953 C.3       5 UNK         0.0783 
     46 C46       -77.9806   25.7757  -73.0451 C.3       11 UNK        -0.0857 
     47 S47       -78.0672   24.8472  -71.4704 S.3       11 UNK        -0.2512 
     48 C48       -78.5239   26.1065  -70.2266 C.3       11 UNK         0.0225 
     49 N         -76.9580   23.9541  -74.4010 N.am      5 UNK        -0.4615 
     50 C         -75.9619   23.1776  -74.8442 C.2       4 UNK         0.5053 
     51 O         -74.7839   23.5310  -74.8650 O.2       4 UNK        -0.5105 
     52 CA        -76.3455   21.7962  -75.4048 C.3       4 UNK         0.0263 
     53 CB        -76.3620   20.7488  -74.2808 C.3       4 UNK        -0.1981 
     54 N         -77.6343   21.7844  -76.1039 N.am      4 UNK        -0.4224 
     55 C         -77.9329   22.5336  -77.1745 C.2       3 UNK         0.4895 
     56 O         -77.1326   23.3033  -77.7078 O.2       3 UNK        -0.5091 
     57 CA        -79.3707   22.4620  -77.7238 C.3       3 UNK         0.0250 
     58 CB        -80.2459   21.3640  -77.0755 C.3       3 UNK        -0.1996 
     59 N         -80.0423   23.7666  -77.6435 N.am      3 UNK        -0.4254 
     60 C         -80.2340   24.5017  -76.5379 C.2       2 UNK         0.5004 
     61 O         -79.8558   24.1664  -75.4125 O.2       2 UNK        -0.5226 
     62 CA        -80.9858   25.8261  -76.7235 C.3       2 UNK         0.0269 
     63 CB        -82.4894   25.5736  -76.9348 C.3       2 UNK        -0.1926 
     64 N         -80.8147   26.6689  -75.5403 N.am      2 UNK        -0.4687 
     65 C         -80.6226   27.9955  -75.5379 C.2       1 UNK         0.5165 
     66 O         -80.4705   28.6548  -76.5664 O.2       1 UNK        -0.5079 
     67 H67       -83.3690   27.6582  -74.3185 H         1 UNK         0.0900 
     68 H68       -84.2282   27.2986  -72.8281 H         1 UNK         0.0900 
     69 H69       -83.5321   28.8983  -73.0605 H         1 UNK         0.0900 
     70 H70       -80.0648   27.4567  -72.6003 H         1 UNK         0.2959 
     71 H71       -81.5155   29.4015  -74.2511 H         1 UNK         0.1079 
     72 H72       -78.5279   29.0248  -73.7504 H         1 UNK         0.0837 
     73 H73       -79.2034   30.2372  -74.8069 H         1 UNK         0.0837 
     74 H74       -78.1263   31.7235  -70.9901 H         1 UNK         0.0685 
     75 H75       -77.3637   31.2950  -72.5028 H         1 UNK         0.0685 
     76 H76       -79.3276   28.5512  -71.0506 H         1 UNK         0.1434 
     77 H77       -75.8756   26.4503  -69.6582 H         1 UNK         0.1329 
     78 H78       -75.5402   30.5462  -70.8846 H         1 UNK         0.1335 
     79 H79       -73.8397   27.5912  -69.2734 H         1 UNK         0.0680 
     80 H80       -73.8277   29.3280  -69.2120 H         1 UNK         0.0680 
     81 H81       -71.6050   30.3926  -71.6329 H         1 UNK         0.1032 
     82 H82       -73.0270   30.8077  -70.7269 H         1 UNK         0.1032 
     83 H83       -74.4030   30.6191  -72.8476 H         1 UNK         0.0461 
     84 H84       -72.2957   33.9580  -73.7928 H         1 UNK         0.3453 
     85 H85       -71.8391   32.3972  -74.4306 H         1 UNK         0.3453 
     86 H86       -72.0685   29.4811  -73.9700 H         1 UNK         0.2984 
     87 H87       -73.3805   29.4686  -77.2948 H         1 UNK         0.0554 
     88 H88       -71.5256   31.0869  -77.2248 H         1 UNK         0.0847 
     89 H89       -70.9411   29.5114  -77.7340 H         1 UNK         0.0847 
     90 H90       -70.6311   30.0837  -76.0963 H         1 UNK         0.0847 
     91 H91       -73.1872   27.4050  -76.6664 H         1 UNK         0.3141 
     92 H92       -70.8801   25.4486  -75.1796 H         1 UNK         0.0743 
     93 H93       -71.7556   25.9215  -72.8980 H         1 UNK         0.0784 
     94 H94       -73.4050   25.9223  -73.5031 H         1 UNK         0.0784 
     95 H95       -72.4545   24.4358  -73.5197 H         1 UNK         0.0784 
     96 H96       -73.6408   24.8666  -75.7353 H         1 UNK         0.3213 
     97 H97       -73.3437   24.8356  -79.2940 H         1 UNK         0.0855 
     98 H98       -73.7984   22.6010  -77.2459 H         1 UNK         0.0814 
     99 H99       -72.6945   22.5550  -78.6094 H         1 UNK         0.0814 
    100 H100      -74.4280   22.6058  -78.8932 H         1 UNK         0.0814 
    101 H101      -75.6133   24.4142  -77.6634 H         1 UNK         0.3105 
    102 H102      -76.5249   27.8571  -77.2006 H         1 UNK         0.0547 
    103 H103      -78.5765   27.1347  -78.2452 H         1 UNK         0.0837 
    104 H104      -77.8689   25.6017  -78.7706 H         1 UNK         0.0837 
    105 H105      -77.3314   27.1187  -79.4724 H         1 UNK         0.0837 
    106 H106      -77.4731   25.1904  -76.3842 H         1 UNK         0.3020 
    107 H107      -75.8936   25.3179  -73.2481 H         1 UNK         0.1245 
    108 H108      -78.9174   25.6399  -73.5820 H         1 UNK         0.0781 
    109 H109      -77.9016   26.8425  -72.8507 H         1 UNK         0.0781 
    110 H110      -78.3980   25.6817  -69.2298 H         1 UNK         0.0836 
    111 H111      -79.5871   26.3304  -70.3275 H         1 UNK         0.0836 
    112 H112      -77.9137   23.6230  -74.4588 H         1 UNK         0.3022 
    113 H113      -75.5794   21.5081  -76.1265 H         1 UNK         0.0747 
    114 H114      -76.5441   19.7478  -74.6724 H         1 UNK         0.0793 
    115 H115      -75.4035   20.7215  -73.7601 H         1 UNK         0.0793 
    116 H116      -77.1303   20.9653  -73.5373 H         1 UNK         0.0793 
    117 H117      -78.3592   21.1997  -75.7141 H         1 UNK         0.3047 
    118 H118      -79.2743   22.2244  -78.7843 H         1 UNK         0.0822 
    119 H119      -81.2243   21.3168  -77.5539 H         1 UNK         0.0807 
    120 H120      -80.4134   21.5387  -76.0120 H         1 UNK         0.0807 
    121 H121      -79.7932   20.3777  -77.1874 H         1 UNK         0.0807 
    122 H122      -80.3728   24.1332  -78.5255 H         1 UNK         0.2946 
    123 H123      -80.5844   26.3262  -77.6057 H         1 UNK         0.1144 
    124 H124      -82.9345   25.0583  -76.0825 H         1 UNK         0.0793 
    125 H125      -82.6693   24.9596  -77.8182 H         1 UNK         0.0793 
    126 H126      -83.0309   26.5088  -77.0788 H         1 UNK         0.0793 
    127 H127      -80.8594   26.1767  -74.6579 H         1 UNK         0.2896 
@<TRIPOS>BOND
     1    1    2 1    
     2    1   67 1    
     3    1   68 1    
     4    1   69 1    
     5    2    3 2    
     6    2    4 am   BACKBONE|DICT|INTERRES
     7    4    5 1    
     8    4   70 1    
     9    5    6 1    
    10    5   65 1    
    11    5   71 1    
    12    6    7 1    
    13    6   72 1    
    14    6   73 1    
    15    7    8 1    
    16    8    9 1    
    17    8   74 1    
    18    8   75 1    
    19    9   10 ar   
    20    9   14 ar   
    21   10   11 ar   
    22   10   76 1    
    23   11   12 ar   
    24   11   48 1    
    25   12   13 ar   
    26   12   77 1    
    27   13   14 ar   
    28   13   15 1    
    29   14   78 1    
    30   15   16 1    
    31   15   79 1    
    32   15   80 1    
    33   16   17 1    
    34   17   18 1    
    35   17   81 1    
    36   17   82 1    
    37   18   19 1    
    38   18   22 1    
    39   18   83 1    
    40   19   20 am   BACKBONE|DICT|INTERRES
    41   19   21 2    
    42   20   84 1    
    43   20   85 1    
    44   22   23 am   BACKBONE|DICT|INTERRES
    45   22   86 1    
    46   23   24 2    
    47   23   25 1    
    48   25   26 1    
    49   25   27 1    
    50   25   87 1    
    51   26   88 1    
    52   26   89 1    
    53   26   90 1    
    54   27   28 am   BACKBONE|DICT|INTERRES
    55   27   91 1    
    56   28   29 2    
    57   28   30 1    
    58   30   31 1    
    59   30   32 1    
    60   30   92 1    
    61   31   93 1    
    62   31   94 1    
    63   31   95 1    
    64   32   33 am   BACKBONE|DICT|INTERRES
    65   32   96 1    
    66   33   34 2    
    67   33   35 1    
    68   35   36 1    
    69   35   37 1    
    70   35   97 1    
    71   36   98 1    
    72   36   99 1    
    73   36  100 1    
    74   37   38 am   BACKBONE|DICT|INTERRES
    75   37  101 1    
    76   38   39 2    
    77   38   40 1    
    78   40   41 1    
    79   40   42 1    
    80   40  102 1    
    81   41  103 1    
    82   41  104 1    
    83   41  105 1    
    84   42   43 am   BACKBONE|DICT|INTERRES
    85   42  106 1    
    86   43   44 2    
    87   43   45 1    
    88   45   46 1    
    89   45   49 1    
    90   45  107 1    
    91   46   47 1    
    92   46  108 1    
    93   46  109 1    
    94   47   48 1    
    95   48  110 1    
    96   48  111 1    
    97   49   50 am   BACKBONE|DICT|INTERRES
    98   49  112 1    
    99   50   51 2    
   100   50   52 1    
   101   52   53 1    
   102   52   54 1    
   103   52  113 1    
   104   53  114 1    
   105   53  115 1    
   106   53  116 1    
   107   54   55 am   BACKBONE|DICT|INTERRES
   108   54  117 1    
   109   55   56 2    
   110   55   57 1    
   111   57   58 1    
   112   57   59 1    
   113   57  118 1    
   114   58  119 1    
   115   58  120 1    
   116   58  121 1    
   117   59   60 am   BACKBONE|DICT|INTERRES
   118   59  122 1    
   119   60   61 2    
   120   60   62 1    
   121   62   63 1    
   122   62   64 1    
   123   62  123 1    
   124   63  124 1    
   125   63  125 1    
   126   63  126 1    
   127   64   65 am   BACKBONE|DICT|INTERRES
   128   64  127 1    
   129   65   66 2    
@<TRIPOS>SUBSTRUCTURE
     1 UNK         1 GROUP             0       ****    0 ROOT    
