@<TRIPOS>MOLECULE
3R135
127   129    1
SMALL
USER_CHARGES


@<TRIPOS>ATOM
      1 CA        -86.1400   28.2228  -73.2039 C.3       0 UNK        -0.1998 
      2 C         -84.6948   27.7499  -73.2568 C.2       0 UNK         0.4909 
      3 O         -84.3293   26.8315  -72.5224 O.2       0 UNK        -0.5240 
      4 N         -83.8797   28.3750  -74.1183 N.am      1 UNK        -0.4739 
      5 CA        -82.4606   28.0816  -74.3602 C.3       1 UNK         0.0864 
      6 C6        -81.5415   28.3596  -73.1388 C.3       11 UNK        -0.0881 
      7 S7        -81.6322   30.0544  -72.4671 S.3       11 UNK        -0.2682 
      8 C8        -79.9571   30.7009  -72.8121 C.3       11 UNK         0.0289 
      9 C9        -78.8427   30.2245  -71.8722 C.ar      11 UNK        -0.0687 
     10 C10       -78.8224   28.9418  -71.3080 C.ar      11 UNK        -0.0823 
     11 C11       -77.7303   28.4986  -70.5597 C.ar      11 UNK        -0.0830 
     12 C12       -76.6713   29.3717  -70.3079 C.ar      11 UNK        -0.1021 
     13 C13       -76.6711   30.6556  -70.8603 C.ar      11 UNK        -0.0753 
     14 C14       -77.7562   31.0741  -71.6369 C.ar      11 UNK        -0.0933 
     15 C15       -75.4719   31.5709  -70.6702 C.3       11 UNK         0.0166 
     16 S16       -74.2793   31.3799  -72.0344 S.3       11 UNK        -0.2615 
     17 C17       -73.6810   29.6834  -71.7310 C.3       11 UNK        -0.0865 
     18 CA        -72.3397   29.3899  -72.4426 C.3       10 UNK         0.0862 
     19 C         -71.7391   28.0524  -71.9465 C.2       10 UNK         0.5551 
     20 N         -70.5589   28.0802  -71.3440 N.am      10 UNK        -0.7319 
     21 O         -72.3556   26.9972  -72.0727 O.2       10 UNK        -0.5018 
     22 N         -72.5069   29.3154  -73.8966 N.am      10 UNK        -0.4509 
     23 C         -71.6781   29.8610  -74.7918 C.2       10 UNK         0.4899 
     24 O         -70.7629   30.6369  -74.5092 O.2       10 UNK        -0.4839 
     25 CA        -71.8979   29.4113  -76.2477 C.3       9 UNK         0.0222 
     26 CB        -70.9162   30.0595  -77.2466 C.3       9 UNK        -0.1966 
     27 N         -71.8749   27.9479  -76.3569 N.am      9 UNK        -0.4218 
     28 C         -70.8703   27.1158  -76.0351 C.2       9 UNK         0.5020 
     29 O         -69.7525   27.4872  -75.6746 O.2       9 UNK        -0.5274 
     30 CA        -71.1534   25.6036  -76.1092 C.3       8 UNK         0.0270 
     31 CB        -71.3409   25.0242  -74.6986 C.3       8 UNK        -0.1976 
     32 N         -72.3204   25.2631  -76.9271 N.am      8 UNK        -0.4313 
     33 C         -72.3439   25.3303  -78.2654 C.2       8 UNK         0.5041 
     34 O         -71.3682   25.6329  -78.9537 O.2       8 UNK        -0.5577 
     35 CA        -73.6830   25.0285  -78.9538 C.3       7 UNK         0.0284 
     36 CB        -73.8718   23.5119  -79.1172 C.3       7 UNK        -0.1958 
     37 N         -74.8326   25.6028  -78.2481 N.am      7 UNK        -0.4454 
     38 C         -75.0806   26.9163  -78.1372 C.2       7 UNK         0.5089 
     39 O         -74.3591   27.7917  -78.6147 O.2       7 UNK        -0.5125 
     40 CA        -76.3266   27.3294  -77.3337 C.3       6 UNK         0.0408 
     41 CB        -77.6110   27.0905  -78.1421 C.3       6 UNK        -0.1791 
     42 N         -76.4177   26.6472  -76.0420 N.am      6 UNK        -0.4762 
     43 C         -75.5446   26.8146  -75.0364 C.2       6 UNK         0.5007 
     44 O         -74.5927   27.5960  -75.0755 O.2       6 UNK        -0.5032 
     45 CA        -75.7473   25.9467  -73.7801 C.3       5 UNK         0.0783 
     46 C46       -76.7081   26.6442  -72.7855 C.3       11 UNK        -0.0857 
     47 S47       -76.4752   26.0503  -71.0732 S.3       11 UNK        -0.2512 
     48 C48       -77.6664   27.0468  -70.1018 C.3       11 UNK         0.0225 
     49 N         -76.1826   24.5869  -74.1208 N.am      5 UNK        -0.4615 
     50 C         -75.4461   23.7081  -74.8161 C.2       4 UNK         0.5053 
     51 O         -74.3137   23.9410  -75.2390 O.2       4 UNK        -0.5105 
     52 CA        -76.1077   22.3589  -75.1388 C.3       4 UNK         0.0263 
     53 CB        -76.2573   21.4988  -73.8730 C.3       4 UNK        -0.1981 
     54 N         -77.4093   22.5100  -75.7947 N.am      4 UNK        -0.4224 
     55 C         -77.5996   23.0979  -76.9855 C.2       3 UNK         0.4895 
     56 O         -76.6950   23.5710  -77.6690 O.2       3 UNK        -0.5091 
     57 CA        -79.0442   23.2044  -77.4995 C.3       3 UNK         0.0250 
     58 CB        -79.4084   21.9660  -78.3338 C.3       3 UNK        -0.1996 
     59 N         -80.0428   23.3962  -76.4452 N.am      3 UNK        -0.4254 
     60 C         -80.0740   24.4292  -75.5927 C.2       2 UNK         0.5004 
     61 O         -79.2192   25.3202  -75.5480 O.2       2 UNK        -0.5226 
     62 CA        -81.2297   24.4210  -74.5822 C.3       2 UNK         0.0269 
     63 CB        -80.8284   23.6272  -73.3274 C.3       2 UNK        -0.1926 
     64 N         -81.5948   25.7768  -74.1821 N.am      2 UNK        -0.4687 
     65 C         -82.2813   26.6534  -74.9297 C.2       1 UNK         0.5165 
     66 O         -82.7662   26.3778  -76.0293 O.2       1 UNK        -0.5079 
     67 H67       -86.3279   29.0417  -73.8981 H         1 UNK         0.0900 
     68 H68       -86.8123   27.4032  -73.4563 H         1 UNK         0.0900 
     69 H69       -86.3846   28.5676  -72.1996 H         1 UNK         0.0900 
     70 H70       -84.2621   29.1074  -74.7001 H         1 UNK         0.2959 
     71 H71       -82.1462   28.7547  -75.1597 H         1 UNK         0.1079 
     72 H72       -80.5105   28.1594  -73.4361 H         1 UNK         0.0837 
     73 H73       -81.7738   27.6827  -72.3147 H         1 UNK         0.0837 
     74 H74       -79.6818   30.4558  -73.8387 H         1 UNK         0.0685 
     75 H75       -80.0213   31.7893  -72.7690 H         1 UNK         0.0685 
     76 H76       -79.6306   28.2511  -71.4692 H         1 UNK         0.1434 
     77 H77       -75.8226   29.0287  -69.7324 H         1 UNK         0.1329 
     78 H78       -77.7370   32.0581  -72.0858 H         1 UNK         0.1335 
     79 H79       -74.9807   31.3697  -69.7169 H         1 UNK         0.0680 
     80 H80       -75.8011   32.6104  -70.6305 H         1 UNK         0.0680 
     81 H81       -74.4462   28.9723  -72.0482 H         1 UNK         0.1032 
     82 H82       -73.5673   29.5537  -70.6529 H         1 UNK         0.1032 
     83 H83       -71.6470   30.1944  -72.1862 H         1 UNK         0.0461 
     84 H84       -70.1631   27.2181  -71.0034 H         1 UNK         0.3453 
     85 H85       -70.0493   28.9433  -71.2354 H         1 UNK         0.3453 
     86 H86       -73.2138   28.6642  -74.2285 H         1 UNK         0.2984 
     87 H87       -72.9062   29.7240  -76.5238 H         1 UNK         0.0554 
     88 H88       -71.0057   31.1463  -77.2290 H         1 UNK         0.0847 
     89 H89       -71.1184   29.7333  -78.2668 H         1 UNK         0.0847 
     90 H90       -69.8785   29.8164  -77.0162 H         1 UNK         0.0847 
     91 H91       -72.7609   27.5270  -76.6059 H         1 UNK         0.3141 
     92 H92       -70.2747   25.1314  -76.5539 H         1 UNK         0.0743 
     93 H93       -70.4906   25.2605  -74.0573 H         1 UNK         0.0784 
     94 H94       -72.2329   25.4273  -74.2183 H         1 UNK         0.0784 
     95 H95       -71.4378   23.9388  -74.7245 H         1 UNK         0.0784 
     96 H96       -73.1482   24.9389  -76.4308 H         1 UNK         0.3213 
     97 H97       -73.6487   25.4746  -79.9501 H         1 UNK         0.0855 
     98 H98       -73.9561   23.0100  -78.1522 H         1 UNK         0.0814 
     99 H99       -73.0284   23.0665  -79.6464 H         1 UNK         0.0814 
    100 H100      -74.7705   23.2848  -79.6910 H         1 UNK         0.0814 
    101 H101      -75.4998   24.9382  -77.8580 H         1 UNK         0.3105 
    102 H102      -76.2531   28.4006  -77.1341 H         1 UNK         0.0547 
    103 H103      -77.5901   27.6487  -79.0789 H         1 UNK         0.0837 
    104 H104      -78.4942   27.4134  -77.5905 H         1 UNK         0.0837 
    105 H105      -77.7412   26.0387  -78.3943 H         1 UNK         0.0837 
    106 H106      -77.1950   26.0080  -75.9125 H         1 UNK         0.3020 
    107 H107      -74.7632   25.8677  -73.3102 H         1 UNK         0.1245 
    108 H108      -77.7500   26.5126  -73.0840 H         1 UNK         0.0781 
    109 H109      -76.5238   27.7201  -72.7836 H         1 UNK         0.0781 
    110 H110      -77.3861   27.0084  -69.0483 H         1 UNK         0.0836 
    111 H111      -78.6496   26.5786  -70.1700 H         1 UNK         0.0836 
    112 H112      -77.1159   24.3285  -73.8384 H         1 UNK         0.3022 
    113 H113      -75.4494   21.8296  -75.8313 H         1 UNK         0.0747 
    114 H114      -76.9463   21.9440  -73.1543 H         1 UNK         0.0793 
    115 H115      -76.6236   20.5007  -74.1141 H         1 UNK         0.0793 
    116 H116      -75.2967   21.3760  -73.3704 H         1 UNK         0.0793 
    117 H117      -78.2151   22.1496  -75.3059 H         1 UNK         0.3047 
    118 H118      -79.0927   24.0773  -78.1530 H         1 UNK         0.0822 
    119 H119      -80.3907   22.0717  -78.7946 H         1 UNK         0.0807 
    120 H120      -79.4153   21.0577  -77.7299 H         1 UNK         0.0807 
    121 H121      -78.6899   21.8150  -79.1410 H         1 UNK         0.0807 
    122 H122      -80.7756   22.7028  -76.3935 H         1 UNK         0.2946 
    123 H123      -82.1022   23.9494  -75.0408 H         1 UNK         0.1144 
    124 H124      -79.9551   24.0595  -72.8366 H         1 UNK         0.0793 
    125 H125      -80.5845   22.5936  -73.5762 H         1 UNK         0.0793 
    126 H126      -81.6407   23.5986  -72.6006 H         1 UNK         0.0793 
    127 H127      -81.2355   26.0861  -73.2923 H         1 UNK         0.2896 
@<TRIPOS>BOND
     1    1    2 1    
     2    1   67 1    
     3    1   68 1    
     4    1   69 1    
     5    2    3 2    
     6    2    4 am   BACKBONE|DICT|INTERRES
     7    4    5 1    
     8    4   70 1    
     9    5    6 1    
    10    5   65 1    
    11    5   71 1    
    12    6    7 1    
    13    6   72 1    
    14    6   73 1    
    15    7    8 1    
    16    8    9 1    
    17    8   74 1    
    18    8   75 1    
    19    9   10 ar   
    20    9   14 ar   
    21   10   11 ar   
    22   10   76 1    
    23   11   12 ar   
    24   11   48 1    
    25   12   13 ar   
    26   12   77 1    
    27   13   14 ar   
    28   13   15 1    
    29   14   78 1    
    30   15   16 1    
    31   15   79 1    
    32   15   80 1    
    33   16   17 1    
    34   17   18 1    
    35   17   81 1    
    36   17   82 1    
    37   18   19 1    
    38   18   22 1    
    39   18   83 1    
    40   19   20 am   BACKBONE|DICT|INTERRES
    41   19   21 2    
    42   20   84 1    
    43   20   85 1    
    44   22   23 am   BACKBONE|DICT|INTERRES
    45   22   86 1    
    46   23   24 2    
    47   23   25 1    
    48   25   26 1    
    49   25   27 1    
    50   25   87 1    
    51   26   88 1    
    52   26   89 1    
    53   26   90 1    
    54   27   28 am   BACKBONE|DICT|INTERRES
    55   27   91 1    
    56   28   29 2    
    57   28   30 1    
    58   30   31 1    
    59   30   32 1    
    60   30   92 1    
    61   31   93 1    
    62   31   94 1    
    63   31   95 1    
    64   32   33 am   BACKBONE|DICT|INTERRES
    65   32   96 1    
    66   33   34 2    
    67   33   35 1    
    68   35   36 1    
    69   35   37 1    
    70   35   97 1    
    71   36   98 1    
    72   36   99 1    
    73   36  100 1    
    74   37   38 am   BACKBONE|DICT|INTERRES
    75   37  101 1    
    76   38   39 2    
    77   38   40 1    
    78   40   41 1    
    79   40   42 1    
    80   40  102 1    
    81   41  103 1    
    82   41  104 1    
    83   41  105 1    
    84   42   43 am   BACKBONE|DICT|INTERRES
    85   42  106 1    
    86   43   44 2    
    87   43   45 1    
    88   45   46 1    
    89   45   49 1    
    90   45  107 1    
    91   46   47 1    
    92   46  108 1    
    93   46  109 1    
    94   47   48 1    
    95   48  110 1    
    96   48  111 1    
    97   49   50 am   BACKBONE|DICT|INTERRES
    98   49  112 1    
    99   50   51 2    
   100   50   52 1    
   101   52   53 1    
   102   52   54 1    
   103   52  113 1    
   104   53  114 1    
   105   53  115 1    
   106   53  116 1    
   107   54   55 am   BACKBONE|DICT|INTERRES
   108   54  117 1    
   109   55   56 2    
   110   55   57 1    
   111   57   58 1    
   112   57   59 1    
   113   57  118 1    
   114   58  119 1    
   115   58  120 1    
   116   58  121 1    
   117   59   60 am   BACKBONE|DICT|INTERRES
   118   59  122 1    
   119   60   61 2    
   120   60   62 1    
   121   62   63 1    
   122   62   64 1    
   123   62  123 1    
   124   63  124 1    
   125   63  125 1    
   126   63  126 1    
   127   64   65 am   BACKBONE|DICT|INTERRES
   128   64  127 1    
   129   65   66 2    
@<TRIPOS>SUBSTRUCTURE
     1 UNK         1 GROUP             0       ****    0 ROOT    
