@<TRIPOS>MOLECULE
3R135
127   129    1
SMALL
USER_CHARGES


@<TRIPOS>ATOM
      1 CA        -79.5342   31.2380  -76.3608 C.3       0 UNK        -0.1998 
      2 C         -79.7881   30.5118  -75.0485 C.2       0 UNK         0.4909 
      3 O         -79.3397   30.9729  -74.0012 O.2       0 UNK        -0.5240 
      4 N         -80.5053   29.3861  -75.1045 N.am      1 UNK        -0.4739 
      5 CA        -80.8053   28.4775  -73.9989 C.3       1 UNK         0.0864 
      6 C6        -81.8285   29.0789  -72.9980 C.3       11 UNK        -0.0881 
      7 S7        -82.0215   28.0991  -71.4680 S.3       11 UNK        -0.2682 
      8 C8        -80.9208   28.9651  -70.3074 C.3       11 UNK         0.0289 
      9 C9        -79.4505   28.6613  -70.5624 C.ar      11 UNK        -0.0687 
     10 C10       -78.9066   27.4346  -70.1689 C.ar      11 UNK        -0.0823 
     11 C11       -77.5407   27.1766  -70.3272 C.ar      11 UNK        -0.0830 
     12 C12       -76.7186   28.1615  -70.8875 C.ar      11 UNK        -0.1021 
     13 C13       -77.2524   29.3846  -71.3015 C.ar      11 UNK        -0.0753 
     14 C14       -78.6197   29.6268  -71.1370 C.ar      11 UNK        -0.0933 
     15 C15       -76.3421   30.4742  -71.8505 C.3       11 UNK         0.0166 
     16 S16       -75.5708   30.0362  -73.4439 S.3       11 UNK        -0.2615 
     17 C17       -74.6522   31.5871  -73.7682 C.3       11 UNK        -0.0865 
     18 CA        -73.1082   31.5069  -73.6125 C.3       10 UNK         0.0862 
     19 C         -72.6478   31.0232  -72.2052 C.2       10 UNK         0.5551 
     20 N         -71.9006   29.9320  -72.0899 N.am      10 UNK        -0.7319 
     21 O         -72.9588   31.6645  -71.2046 O.2       10 UNK        -0.5018 
     22 N         -72.4743   30.8286  -74.7550 N.am      10 UNK        -0.4509 
     23 C         -71.2179   31.0444  -75.1648 C.2       10 UNK         0.4899 
     24 O         -70.4366   31.8076  -74.5940 O.2       10 UNK        -0.4839 
     25 CA        -70.7636   30.2880  -76.4296 C.3       9 UNK         0.0222 
     26 CB        -69.4094   30.7927  -76.9641 C.3       9 UNK        -0.1966 
     27 N         -70.6789   28.8403  -76.2226 N.am      9 UNK        -0.4218 
     28 C         -71.7257   28.0101  -76.1562 C.2       9 UNK         0.5020 
     29 O         -72.8990   28.3889  -76.1974 O.2       9 UNK        -0.5274 
     30 CA        -71.4024   26.5182  -75.9862 C.3       8 UNK         0.0270 
     31 CB        -71.2294   26.1711  -74.4981 C.3       8 UNK        -0.1976 
     32 N         -72.4882   25.7164  -76.5481 N.am      8 UNK        -0.4313 
     33 C         -72.5738   25.3515  -77.8366 C.2       8 UNK         0.5041 
     34 O         -71.6606   25.5043  -78.6497 O.2       8 UNK        -0.5577 
     35 CA        -73.8985   24.7222  -78.3156 C.3       7 UNK         0.0284 
     36 CB        -73.8154   23.1880  -78.2697 C.3       7 UNK        -0.1958 
     37 N         -75.0506   25.1607  -77.5290 N.am      7 UNK        -0.4454 
     38 C         -75.5243   26.4134  -77.4827 C.2       7 UNK         0.5089 
     39 O         -75.1984   27.2922  -78.2813 O.2       7 UNK        -0.5125 
     40 CA        -76.5094   26.7531  -76.3454 C.3       6 UNK         0.0408 
     41 CB        -77.8914   27.1207  -76.9085 C.3       6 UNK        -0.1791 
     42 N         -76.6724   25.6931  -75.3427 N.am      6 UNK        -0.4762 
     43 C         -75.7330   25.2429  -74.4971 C.2       6 UNK         0.5007 
     44 O         -74.5745   25.6552  -74.4868 O.2       6 UNK        -0.5032 
     45 CA        -76.1352   24.0790  -73.5739 C.3       5 UNK         0.0783 
     46 C46       -76.9201   24.5665  -72.3308 C.3       11 UNK        -0.0857 
     47 S47       -75.7927   25.0870  -70.9991 S.3       11 UNK        -0.2512 
     48 C48       -76.9554   25.8591  -69.8282 C.3       11 UNK         0.0225 
     49 N         -76.8895   23.0754  -74.3271 N.am      5 UNK        -0.4615 
     50 C         -76.3520   22.0007  -74.9182 C.2       4 UNK         0.5053 
     51 O         -75.1523   21.7284  -74.8793 O.2       4 UNK        -0.5105 
     52 CA        -77.3063   21.0586  -75.6757 C.3       4 UNK         0.0263 
     53 CB        -77.7442   19.8990  -74.7665 C.3       4 UNK        -0.1981 
     54 N         -78.4959   21.7315  -76.2028 N.am      4 UNK        -0.4224 
     55 C         -78.4838   22.5933  -77.2286 C.2       3 UNK         0.4895 
     56 O         -77.4731   22.8821  -77.8689 O.2       3 UNK        -0.5091 
     57 CA        -79.8193   23.2724  -77.5849 C.3       3 UNK         0.0250 
     58 CB        -80.5918   22.4246  -78.6085 C.3       3 UNK        -0.1996 
     59 N         -80.6999   23.5860  -76.4484 N.am      3 UNK        -0.4254 
     60 C         -80.3470   24.2892  -75.3634 C.2       2 UNK         0.5004 
     61 O         -79.1881   24.6107  -75.0994 O.2       2 UNK        -0.5226 
     62 CA        -81.4587   24.6974  -74.3870 C.3       2 UNK         0.0269 
     63 CB        -81.5077   23.7259  -73.1972 C.3       2 UNK        -0.1926 
     64 N         -81.2140   26.0535  -73.8884 N.am      2 UNK        -0.4687 
     65 C         -81.2870   27.1601  -74.6393 C.2       1 UNK         0.5165 
     66 O         -81.7040   27.1640  -75.8030 O.2       1 UNK        -0.5079 
     67 H67       -78.4626   31.3123  -76.5446 H         1 UNK         0.0900 
     68 H68       -79.9887   30.7231  -77.2071 H         1 UNK         0.0900 
     69 H69       -79.9438   32.2468  -76.3167 H         1 UNK         0.0900 
     70 H70       -80.8540   29.0401  -75.9919 H         1 UNK         0.2959 
     71 H71       -79.8659   28.2733  -73.4798 H         1 UNK         0.1079 
     72 H72       -82.8074   29.1811  -73.4702 H         1 UNK         0.0837 
     73 H73       -81.5337   30.0909  -72.7186 H         1 UNK         0.0837 
     74 H74       -81.1126   30.0385  -70.3492 H         1 UNK         0.0685 
     75 H75       -81.1753   28.6551  -69.2929 H         1 UNK         0.0685 
     76 H76       -79.5480   26.6918  -69.7140 H         1 UNK         0.1434 
     77 H77       -75.6570   27.9837  -70.9937 H         1 UNK         0.1329 
     78 H78       -79.0349   30.5802  -71.4335 H         1 UNK         0.1335 
     79 H79       -75.5622   30.6820  -71.1171 H         1 UNK         0.0680 
     80 H80       -76.9027   31.4019  -71.9767 H         1 UNK         0.0680 
     81 H81       -74.9009   31.9173  -74.7778 H         1 UNK         0.1032 
     82 H82       -75.0357   32.3751  -73.1178 H         1 UNK         0.1032 
     83 H83       -72.7651   32.5425  -73.6620 H         1 UNK         0.0461 
     84 H84       -71.5994   29.6309  -71.1769 H         1 UNK         0.3453 
     85 H85       -71.6428   29.4084  -72.9099 H         1 UNK         0.3453 
     86 H86       -73.0180   30.1130  -75.2296 H         1 UNK         0.2984 
     87 H87       -71.5102   30.4819  -77.2030 H         1 UNK         0.0554 
     88 H88       -69.4416   31.8657  -77.1584 H         1 UNK         0.0847 
     89 H89       -69.1459   30.3054  -77.9030 H         1 UNK         0.0847 
     90 H90       -68.6004   30.6147  -76.2544 H         1 UNK         0.0847 
     91 H91       -69.7495   28.4542  -76.1358 H         1 UNK         0.3141 
     92 H92       -70.4708   26.2900  -76.5086 H         1 UNK         0.0743 
     93 H93       -72.1050   26.4520  -73.9114 H         1 UNK         0.0784 
     94 H94       -71.0608   25.1034  -74.3564 H         1 UNK         0.0784 
     95 H95       -70.3726   26.6938  -74.0713 H         1 UNK         0.0784 
     96 H96       -73.3105   25.6288  -75.9557 H         1 UNK         0.3213 
     97 H97       -74.0585   25.0312  -79.3507 H         1 UNK         0.0855 
     98 H98       -73.6738   22.8209  -77.2521 H         1 UNK         0.0814 
     99 H99       -72.9788   22.8246  -78.8680 H         1 UNK         0.0814 
    100 H100      -74.7213   22.7296  -78.6676 H         1 UNK         0.0814 
    101 H101      -75.4366   24.4944  -76.8759 H         1 UNK         0.3105 
    102 H102      -76.1076   27.6286  -75.8307 H         1 UNK         0.0547 
    103 H103      -77.8210   27.9481  -77.6157 H         1 UNK         0.0837 
    104 H104      -78.3484   26.2799  -77.4305 H         1 UNK         0.0837 
    105 H105      -78.5697   27.4310  -76.1148 H         1 UNK         0.0837 
    106 H106      -77.6047   25.2814  -75.2813 H         1 UNK         0.3020 
    107 H107      -75.2079   23.6151  -73.2280 H         1 UNK         0.1245 
    108 H108      -77.5310   23.7567  -71.9284 H         1 UNK         0.0781 
    109 H109      -77.6158   25.3718  -72.5776 H         1 UNK         0.0781 
    110 H110      -76.4298   26.0492  -68.8916 H         1 UNK         0.0836 
    111 H111      -77.7459   25.1433  -69.5967 H         1 UNK         0.0836 
    112 H112      -77.8700   23.2840  -74.4818 H         1 UNK         0.3022 
    113 H113      -76.7514   20.6402  -76.5184 H         1 UNK         0.0747 
    114 H114      -78.3567   19.1785  -75.3088 H         1 UNK         0.0793 
    115 H115      -76.8788   19.3590  -74.3793 H         1 UNK         0.0793 
    116 H116      -78.3183   20.2518  -73.9087 H         1 UNK         0.0793 
    117 H117      -79.3725   21.5544  -75.7344 H         1 UNK         0.3047 
    118 H118      -79.5697   24.2234  -78.0593 H         1 UNK         0.0822 
    119 H119      -81.4718   22.9510  -78.9784 H         1 UNK         0.0807 
    120 H120      -80.9210   21.4764  -78.1816 H         1 UNK         0.0807 
    121 H121      -79.9694   22.1934  -79.4744 H         1 UNK         0.0807 
    122 H122      -81.6732   23.3423  -76.5651 H         1 UNK         0.2946 
    123 H123      -82.4203   24.6839  -74.9050 H         1 UNK         0.1144 
    124 H124      -82.2941   24.0005  -72.4938 H         1 UNK         0.0793 
    125 H125      -80.5626   23.7061  -72.6521 H         1 UNK         0.0793 
    126 H126      -81.7136   22.7080  -73.5308 H         1 UNK         0.0793 
    127 H127      -80.8732   26.1343  -72.9410 H         1 UNK         0.2896 
@<TRIPOS>BOND
     1    1    2 1    
     2    1   67 1    
     3    1   68 1    
     4    1   69 1    
     5    2    3 2    
     6    2    4 am   BACKBONE|DICT|INTERRES
     7    4    5 1    
     8    4   70 1    
     9    5    6 1    
    10    5   65 1    
    11    5   71 1    
    12    6    7 1    
    13    6   72 1    
    14    6   73 1    
    15    7    8 1    
    16    8    9 1    
    17    8   74 1    
    18    8   75 1    
    19    9   10 ar   
    20    9   14 ar   
    21   10   11 ar   
    22   10   76 1    
    23   11   12 ar   
    24   11   48 1    
    25   12   13 ar   
    26   12   77 1    
    27   13   14 ar   
    28   13   15 1    
    29   14   78 1    
    30   15   16 1    
    31   15   79 1    
    32   15   80 1    
    33   16   17 1    
    34   17   18 1    
    35   17   81 1    
    36   17   82 1    
    37   18   19 1    
    38   18   22 1    
    39   18   83 1    
    40   19   20 am   BACKBONE|DICT|INTERRES
    41   19   21 2    
    42   20   84 1    
    43   20   85 1    
    44   22   23 am   BACKBONE|DICT|INTERRES
    45   22   86 1    
    46   23   24 2    
    47   23   25 1    
    48   25   26 1    
    49   25   27 1    
    50   25   87 1    
    51   26   88 1    
    52   26   89 1    
    53   26   90 1    
    54   27   28 am   BACKBONE|DICT|INTERRES
    55   27   91 1    
    56   28   29 2    
    57   28   30 1    
    58   30   31 1    
    59   30   32 1    
    60   30   92 1    
    61   31   93 1    
    62   31   94 1    
    63   31   95 1    
    64   32   33 am   BACKBONE|DICT|INTERRES
    65   32   96 1    
    66   33   34 2    
    67   33   35 1    
    68   35   36 1    
    69   35   37 1    
    70   35   97 1    
    71   36   98 1    
    72   36   99 1    
    73   36  100 1    
    74   37   38 am   BACKBONE|DICT|INTERRES
    75   37  101 1    
    76   38   39 2    
    77   38   40 1    
    78   40   41 1    
    79   40   42 1    
    80   40  102 1    
    81   41  103 1    
    82   41  104 1    
    83   41  105 1    
    84   42   43 am   BACKBONE|DICT|INTERRES
    85   42  106 1    
    86   43   44 2    
    87   43   45 1    
    88   45   46 1    
    89   45   49 1    
    90   45  107 1    
    91   46   47 1    
    92   46  108 1    
    93   46  109 1    
    94   47   48 1    
    95   48  110 1    
    96   48  111 1    
    97   49   50 am   BACKBONE|DICT|INTERRES
    98   49  112 1    
    99   50   51 2    
   100   50   52 1    
   101   52   53 1    
   102   52   54 1    
   103   52  113 1    
   104   53  114 1    
   105   53  115 1    
   106   53  116 1    
   107   54   55 am   BACKBONE|DICT|INTERRES
   108   54  117 1    
   109   55   56 2    
   110   55   57 1    
   111   57   58 1    
   112   57   59 1    
   113   57  118 1    
   114   58  119 1    
   115   58  120 1    
   116   58  121 1    
   117   59   60 am   BACKBONE|DICT|INTERRES
   118   59  122 1    
   119   60   61 2    
   120   60   62 1    
   121   62   63 1    
   122   62   64 1    
   123   62  123 1    
   124   63  124 1    
   125   63  125 1    
   126   63  126 1    
   127   64   65 am   BACKBONE|DICT|INTERRES
   128   64  127 1    
   129   65   66 2    
@<TRIPOS>SUBSTRUCTURE
     1 UNK         1 GROUP             0       ****    0 ROOT    
