@<TRIPOS>MOLECULE
3R135
127   129    1
SMALL
USER_CHARGES


@<TRIPOS>ATOM
      1 CA        -78.5120   29.8280  -74.3554 C.3       0 UNK        -0.1998 
      2 C         -79.9072   29.8680  -74.9684 C.2       0 UNK         0.4909 
      3 O         -80.1220   30.5990  -75.9335 O.2       0 UNK        -0.5240 
      4 N         -80.8871   29.1169  -74.4564 N.am      1 UNK        -0.4739 
      5 CA        -80.7922   28.1236  -73.3838 C.3       1 UNK         0.0864 
      6 C6        -81.4813   28.5943  -72.0740 C.3       11 UNK        -0.0881 
      7 S7        -80.9013   30.2329  -71.4917 S.3       11 UNK        -0.2682 
      8 C8        -79.9784   29.8626  -69.9662 C.3       11 UNK         0.0289 
      9 C9        -78.6085   29.2589  -70.2423 C.ar      11 UNK        -0.0687 
     10 C10       -78.4444   27.8730  -70.2083 C.ar      11 UNK        -0.0823 
     11 C11       -77.1902   27.3037  -70.4343 C.ar      11 UNK        -0.0830 
     12 C12       -76.0903   28.1295  -70.6787 C.ar      11 UNK        -0.1021 
     13 C13       -76.2320   29.5187  -70.7128 C.ar      11 UNK        -0.0753 
     14 C14       -77.4991   30.0788  -70.4918 C.ar      11 UNK        -0.0933 
     15 C15       -74.9767   30.3715  -70.8910 C.3       11 UNK         0.0166 
     16 S16       -75.2041   31.9492  -71.7809 S.3       11 UNK        -0.2615 
     17 C17       -75.1468   31.6604  -73.5937 C.3       11 UNK        -0.0865 
     18 CA        -74.7837   30.2647  -74.1994 C.3       10 UNK         0.0862 
     19 C         -74.9517   30.2726  -75.7557 C.2       10 UNK         0.5551 
     20 N         -74.0553   29.6906  -76.5430 N.am      10 UNK        -0.7319 
     21 O         -75.9301   30.8077  -76.2687 O.2       10 UNK        -0.5018 
     22 N         -73.4914   29.7105  -73.7607 N.am      10 UNK        -0.4509 
     23 C         -72.2883   30.2920  -73.8580 C.2       10 UNK         0.4899 
     24 O         -72.0988   31.4488  -74.2332 O.2       10 UNK        -0.4839 
     25 CA        -71.0737   29.4167  -73.4959 C.3       9 UNK         0.0222 
     26 CB        -70.7455   29.5562  -72.0003 C.3       9 UNK        -0.1966 
     27 N         -71.2237   27.9933  -73.8316 N.am      9 UNK        -0.4218 
     28 C         -71.4378   27.4985  -75.0607 C.2       9 UNK         0.5020 
     29 O         -71.5669   28.2072  -76.0611 O.2       9 UNK        -0.5274 
     30 CA        -71.5067   25.9662  -75.2013 C.3       8 UNK         0.0270 
     31 CB        -71.9603   25.2513  -73.9107 C.3       8 UNK        -0.1976 
     32 N         -72.4330   25.6180  -76.2782 N.am      8 UNK        -0.4313 
     33 C         -72.1097   25.0393  -77.4422 C.2       8 UNK         0.5041 
     34 O         -70.9589   24.7158  -77.7431 O.2       8 UNK        -0.5577 
     35 CA        -73.2454   24.7410  -78.4447 C.3       7 UNK         0.0284 
     36 CB        -73.3942   23.2248  -78.6607 C.3       7 UNK        -0.1958 
     37 N         -74.5412   25.2768  -78.0259 N.am      7 UNK        -0.4454 
     38 C         -74.9785   26.5206  -78.2626 C.2       7 UNK         0.5089 
     39 O         -74.3758   27.3410  -78.9545 O.2       7 UNK        -0.5125 
     40 CA        -76.3040   26.9268  -77.5883 C.3       6 UNK         0.0408 
     41 CB        -77.4822   26.7606  -78.5599 C.3       6 UNK        -0.1791 
     42 N         -76.5886   26.1831  -76.3574 N.am      6 UNK        -0.4762 
     43 C         -75.8270   26.1941  -75.2531 C.2       6 UNK         0.5007 
     44 O         -74.8022   26.8616  -75.1265 O.2       6 UNK        -0.5032 
     45 CA        -76.2741   25.2793  -74.1053 C.3       5 UNK         0.0783 
     46 C46       -77.3440   26.0122  -73.2748 C.3       11 UNK        -0.0857 
     47 S47       -77.9429   25.0446  -71.8487 S.3       11 UNK        -0.2512 
     48 C48       -77.0286   25.7920  -70.4623 C.3       11 UNK         0.0225 
     49 N         -76.7332   23.9827  -74.6088 N.am      5 UNK        -0.4615 
     50 C         -75.9368   23.0427  -75.1346 C.2       4 UNK         0.5053 
     51 O         -74.7158   23.1578  -75.2264 O.2       4 UNK        -0.5105 
     52 CA        -76.6170   21.7684  -75.6649 C.3       4 UNK         0.0263 
     53 CB        -76.6988   20.7059  -74.5576 C.3       4 UNK        -0.1981 
     54 N         -77.9591   22.0204  -76.1968 N.am      4 UNK        -0.4224 
     55 C         -78.2120   22.6969  -77.3269 C.2       3 UNK         0.4895 
     56 O         -77.3367   23.1158  -78.0845 O.2       3 UNK        -0.5091 
     57 CA        -79.6921   22.9982  -77.6345 C.3       3 UNK         0.0250 
     58 CB        -80.3305   21.8363  -78.4121 C.3       3 UNK        -0.1996 
     59 N         -80.4933   23.2912  -76.4363 N.am      3 UNK        -0.4254 
     60 C         -80.2550   24.3179  -75.6081 C.2       2 UNK         0.5004 
     61 O         -79.3400   25.1253  -75.7904 O.2       2 UNK        -0.5226 
     62 CA        -81.1352   24.4193  -74.3455 C.3       2 UNK         0.0269 
     63 CB        -80.8623   23.2388  -73.3962 C.3       2 UNK        -0.1926 
     64 N         -80.8667   25.6732  -73.6309 N.am      2 UNK        -0.4687 
     65 C         -81.4357   26.8423  -73.9497 C.2       1 UNK         0.5165 
     66 O         -82.4197   26.9365  -74.6905 O.2       1 UNK        -0.5079 
     67 H67       -77.9563   28.9656  -74.7226 H         1 UNK         0.0900 
     68 H68       -78.5371   29.8017  -73.2673 H         1 UNK         0.0900 
     69 H69       -77.9703   30.7276  -74.6381 H         1 UNK         0.0900 
     70 H70       -81.7882   29.1173  -74.9164 H         1 UNK         0.2959 
     71 H71       -79.7510   27.8942  -73.1591 H         1 UNK         0.1079 
     72 H72       -82.5603   28.6710  -72.2223 H         1 UNK         0.0837 
     73 H73       -81.3414   27.8546  -71.2843 H         1 UNK         0.0837 
     74 H74       -79.8552   30.7894  -69.4040 H         1 UNK         0.0685 
     75 H75       -80.5717   29.2037  -69.3303 H         1 UNK         0.0685 
     76 H76       -79.2938   27.2320  -70.0156 H         1 UNK         0.1434 
     77 H77       -75.1168   27.6871  -70.8413 H         1 UNK         0.1329 
     78 H78       -77.6227   31.1528  -70.4928 H         1 UNK         0.1335 
     79 H79       -74.6282   30.6242  -69.8889 H         1 UNK         0.0680 
     80 H80       -74.1660   29.7967  -71.3310 H         1 UNK         0.0680 
     81 H81       -74.4777   32.4165  -74.0064 H         1 UNK         0.1032 
     82 H82       -76.1336   31.9577  -73.9496 H         1 UNK         0.1032 
     83 H83       -75.5292   29.5553  -73.8391 H         1 UNK         0.0461 
     84 H84       -74.2011   29.6940  -77.5393 H         1 UNK         0.3453 
     85 H85       -73.2421   29.2181  -76.1631 H         1 UNK         0.3453 
     86 H86       -73.5177   28.7357  -73.4999 H         1 UNK         0.2984 
     87 H87       -70.2222   29.7937  -74.0662 H         1 UNK         0.0554 
     88 H88       -69.8214   29.0373  -71.7446 H         1 UNK         0.0847 
     89 H89       -71.5419   29.1568  -71.3711 H         1 UNK         0.0847 
     90 H90       -70.6110   30.6038  -71.7266 H         1 UNK         0.0847 
     91 H91       -71.1257   27.3385  -73.0692 H         1 UNK         0.3141 
     92 H92       -70.4984   25.6253  -75.4435 H         1 UNK         0.0743 
     93 H93       -71.2157   25.3401  -73.1191 H         1 UNK         0.0784 
     94 H94       -72.9022   25.6503  -73.5330 H         1 UNK         0.0784 
     95 H95       -72.1057   24.1848  -74.0861 H         1 UNK         0.0784 
     96 H96       -73.3863   25.9363  -76.1368 H         1 UNK         0.3213 
     97 H97       -72.9631   25.1941  -79.3975 H         1 UNK         0.0855 
     98 H98       -72.4671   22.7897  -79.0363 H         1 UNK         0.0814 
     99 H99       -74.1744   23.0015  -79.3887 H         1 UNK         0.0814 
    100 H100      -73.6437   22.7081  -77.7332 H         1 UNK         0.0814 
    101 H101      -75.1206   24.6708  -77.4607 H         1 UNK         0.3105 
    102 H102      -76.2308   27.9826  -77.3238 H         1 UNK         0.0547 
    103 H103      -77.3253   27.3465  -79.4664 H         1 UNK         0.0837 
    104 H104      -77.6127   25.7210  -78.8618 H         1 UNK         0.0837 
    105 H105      -78.4169   27.0992  -78.1121 H         1 UNK         0.0837 
    106 H106      -77.4476   25.6401  -76.3399 H         1 UNK         0.3020 
    107 H107      -75.4045   25.1038  -73.4678 H         1 UNK         0.1245 
    108 H108      -78.2029   26.2571  -73.8945 H         1 UNK         0.0781 
    109 H109      -76.9593   26.9783  -72.9530 H         1 UNK         0.0781 
    110 H110      -75.9770   25.5114  -70.5400 H         1 UNK         0.0836 
    111 H111      -77.3917   25.3698  -69.5243 H         1 UNK         0.0836 
    112 H112      -77.7309   23.8342  -74.6043 H         1 UNK         0.3022 
    113 H113      -75.9971   21.3749  -76.4737 H         1 UNK         0.0747 
    114 H114      -77.1139   19.7709  -74.9342 H         1 UNK         0.0793 
    115 H115      -75.7079   20.4814  -74.1600 H         1 UNK         0.0793 
    116 H116      -77.3172   21.0372  -73.7221 H         1 UNK         0.0793 
    117 H117      -78.7401   21.6970  -75.6452 H         1 UNK         0.3047 
    118 H118      -79.7149   23.8864  -78.2700 H         1 UNK         0.0822 
    119 H119      -81.3472   22.0778  -78.7228 H         1 UNK         0.0807 
    120 H120      -80.3680   20.9221  -77.8184 H         1 UNK         0.0807 
    121 H121      -79.7623   21.6142  -79.3167 H         1 UNK         0.0807 
    122 H122      -81.2578   22.6624  -76.2347 H         1 UNK         0.2946 
    123 H123      -82.1830   24.3883  -74.6538 H         1 UNK         0.1144 
    124 H124      -81.4182   23.3443  -72.4643 H         1 UNK         0.0793 
    125 H125      -79.8053   23.1506  -73.1449 H         1 UNK         0.0793 
    126 H126      -81.1688   22.2925  -73.8431 H         1 UNK         0.0793 
    127 H127      -80.0623   25.6637  -73.0187 H         1 UNK         0.2896 
@<TRIPOS>BOND
     1    1    2 1    
     2    1   67 1    
     3    1   68 1    
     4    1   69 1    
     5    2    3 2    
     6    2    4 am   BACKBONE|DICT|INTERRES
     7    4    5 1    
     8    4   70 1    
     9    5    6 1    
    10    5   65 1    
    11    5   71 1    
    12    6    7 1    
    13    6   72 1    
    14    6   73 1    
    15    7    8 1    
    16    8    9 1    
    17    8   74 1    
    18    8   75 1    
    19    9   10 ar   
    20    9   14 ar   
    21   10   11 ar   
    22   10   76 1    
    23   11   12 ar   
    24   11   48 1    
    25   12   13 ar   
    26   12   77 1    
    27   13   14 ar   
    28   13   15 1    
    29   14   78 1    
    30   15   16 1    
    31   15   79 1    
    32   15   80 1    
    33   16   17 1    
    34   17   18 1    
    35   17   81 1    
    36   17   82 1    
    37   18   19 1    
    38   18   22 1    
    39   18   83 1    
    40   19   20 am   BACKBONE|DICT|INTERRES
    41   19   21 2    
    42   20   84 1    
    43   20   85 1    
    44   22   23 am   BACKBONE|DICT|INTERRES
    45   22   86 1    
    46   23   24 2    
    47   23   25 1    
    48   25   26 1    
    49   25   27 1    
    50   25   87 1    
    51   26   88 1    
    52   26   89 1    
    53   26   90 1    
    54   27   28 am   BACKBONE|DICT|INTERRES
    55   27   91 1    
    56   28   29 2    
    57   28   30 1    
    58   30   31 1    
    59   30   32 1    
    60   30   92 1    
    61   31   93 1    
    62   31   94 1    
    63   31   95 1    
    64   32   33 am   BACKBONE|DICT|INTERRES
    65   32   96 1    
    66   33   34 2    
    67   33   35 1    
    68   35   36 1    
    69   35   37 1    
    70   35   97 1    
    71   36   98 1    
    72   36   99 1    
    73   36  100 1    
    74   37   38 am   BACKBONE|DICT|INTERRES
    75   37  101 1    
    76   38   39 2    
    77   38   40 1    
    78   40   41 1    
    79   40   42 1    
    80   40  102 1    
    81   41  103 1    
    82   41  104 1    
    83   41  105 1    
    84   42   43 am   BACKBONE|DICT|INTERRES
    85   42  106 1    
    86   43   44 2    
    87   43   45 1    
    88   45   46 1    
    89   45   49 1    
    90   45  107 1    
    91   46   47 1    
    92   46  108 1    
    93   46  109 1    
    94   47   48 1    
    95   48  110 1    
    96   48  111 1    
    97   49   50 am   BACKBONE|DICT|INTERRES
    98   49  112 1    
    99   50   51 2    
   100   50   52 1    
   101   52   53 1    
   102   52   54 1    
   103   52  113 1    
   104   53  114 1    
   105   53  115 1    
   106   53  116 1    
   107   54   55 am   BACKBONE|DICT|INTERRES
   108   54  117 1    
   109   55   56 2    
   110   55   57 1    
   111   57   58 1    
   112   57   59 1    
   113   57  118 1    
   114   58  119 1    
   115   58  120 1    
   116   58  121 1    
   117   59   60 am   BACKBONE|DICT|INTERRES
   118   59  122 1    
   119   60   61 2    
   120   60   62 1    
   121   62   63 1    
   122   62   64 1    
   123   62  123 1    
   124   63  124 1    
   125   63  125 1    
   126   63  126 1    
   127   64   65 am   BACKBONE|DICT|INTERRES
   128   64  127 1    
   129   65   66 2    
@<TRIPOS>SUBSTRUCTURE
     1 UNK         1 GROUP             0       ****    0 ROOT    
