@<TRIPOS>MOLECULE
3R135
127   129    1
SMALL
USER_CHARGES


@<TRIPOS>ATOM
      1 CA        -81.0811   27.6602  -69.4016 C.3       0 UNK        -0.1998 
      2 C         -81.8154   27.8474  -70.7210 C.2       0 UNK         0.4909 
      3 O         -82.8410   28.5274  -70.7637 O.2       0 UNK        -0.5240 
      4 N         -81.2937   27.2521  -71.7961 N.am      1 UNK        -0.4739 
      5 CA        -81.8371   27.2855  -73.1520 C.3       1 UNK         0.0864 
      6 C6        -81.6705   28.6605  -73.8666 C.3       11 UNK        -0.0881 
      7 S7        -79.9507   29.2552  -74.0357 S.3       11 UNK        -0.2682 
      8 C8        -79.8122   30.4194  -72.6318 C.3       11 UNK         0.0289 
      9 C9        -78.4898   30.2436  -71.8985 C.ar      11 UNK        -0.0687 
     10 C10       -78.1454   28.9874  -71.4005 C.ar      11 UNK        -0.0823 
     11 C11       -76.8972   28.7559  -70.8182 C.ar      11 UNK        -0.0830 
     12 C12       -76.0278   29.8358  -70.6391 C.ar      11 UNK        -0.1021 
     13 C13       -76.3739   31.1153  -71.0904 C.ar      11 UNK        -0.0753 
     14 C14       -77.6023   31.3106  -71.7327 C.ar      11 UNK        -0.0933 
     15 C15       -75.4200   32.2863  -70.8883 C.3       11 UNK         0.0166 
     16 S16       -73.7916   32.0154  -71.6611 S.3       11 UNK        -0.2615 
     17 C17       -74.2247   31.8921  -73.4319 C.3       11 UNK        -0.0865 
     18 CA        -74.2043   30.4335  -73.9683 C.3       10 UNK         0.0862 
     19 C         -74.6338   30.3839  -75.4640 C.2       10 UNK         0.5551 
     20 N         -73.8695   29.7749  -76.3639 N.am      10 UNK        -0.7319 
     21 O         -75.6845   30.9118  -75.8185 O.2       10 UNK        -0.5018 
     22 N         -72.9042   29.7865  -73.7327 N.am      10 UNK        -0.4509 
     23 C         -72.7224   28.6114  -73.1241 C.2       10 UNK         0.4899 
     24 O         -73.6119   27.9493  -72.5875 O.2       10 UNK        -0.4839 
     25 CA        -71.2828   28.0716  -73.1369 C.3       9 UNK         0.0222 
     26 CB        -70.8469   27.6038  -71.7374 C.3       9 UNK        -0.1966 
     27 N         -71.1520   26.9633  -74.0835 N.am      9 UNK        -0.4218 
     28 C         -71.2777   27.0623  -75.4146 C.2       9 UNK         0.5020 
     29 O         -71.4401   28.1333  -76.0052 O.2       9 UNK        -0.5274 
     30 CA        -71.1996   25.7621  -76.2320 C.3       8 UNK         0.0270 
     31 CB        -71.1353   24.4716  -75.3857 C.3       8 UNK        -0.1976 
     32 N         -72.3538   25.6930  -77.1257 N.am      8 UNK        -0.4313 
     33 C         -72.3297   25.2519  -78.3899 C.2       8 UNK         0.5041 
     34 O         -71.2972   24.8888  -78.9571 O.2       8 UNK        -0.5577 
     35 CA        -73.6616   25.1617  -79.1636 C.3       7 UNK         0.0284 
     36 CB        -73.9373   23.7103  -79.5939 C.3       7 UNK        -0.1958 
     37 N         -74.8146   25.6622  -78.4086 N.am      7 UNK        -0.4454 
     38 C         -75.1870   26.9491  -78.3724 C.2       7 UNK         0.5089 
     39 O         -74.6293   27.8376  -79.0176 O.2       7 UNK        -0.5125 
     40 CA        -76.3604   27.3311  -77.4499 C.3       6 UNK         0.0408 
     41 CB        -77.6762   27.4044  -78.2381 C.3       6 UNK        -0.1791 
     42 N         -76.5347   26.4918  -76.2572 N.am      6 UNK        -0.4762 
     43 C         -75.6032   26.3248  -75.3035 C.2       6 UNK         0.5007 
     44 O         -74.4373   26.6887  -75.4283 O.2       6 UNK        -0.5032 
     45 CA        -76.0317   25.6420  -73.9959 C.3       5 UNK         0.0783 
     46 C46       -76.9059   26.5950  -73.1562 C.3       11 UNK        -0.0857 
     47 S47       -77.1776   25.9985  -71.4484 S.3       11 UNK        -0.2512 
     48 C48       -76.4466   27.3441  -70.4352 C.3       11 UNK         0.0225 
     49 N         -76.7035   24.3825  -74.3037 N.am      5 UNK        -0.4615 
     50 C         -76.0798   23.1990  -74.3426 C.2       4 UNK         0.5053 
     51 O         -74.9148   23.0204  -73.9858 O.2       4 UNK        -0.5105 
     52 CA        -76.8786   22.0111  -74.9076 C.3       4 UNK         0.0263 
     53 CB        -77.6746   21.3185  -73.7897 C.3       4 UNK        -0.1981 
     54 N         -77.7901   22.3773  -75.9958 N.am      4 UNK        -0.4224 
     55 C         -77.4356   22.9806  -77.1408 C.2       3 UNK         0.4895 
     56 O         -76.2802   23.2866  -77.4322 O.2       3 UNK        -0.5091 
     57 CA        -78.5678   23.3428  -78.1151 C.3       3 UNK         0.0250 
     58 CB        -78.7730   22.2132  -79.1367 C.3       3 UNK        -0.1996 
     59 N         -79.8478   23.6534  -77.4672 N.am      3 UNK        -0.4254 
     60 C         -80.0579   24.6145  -76.5542 C.2       2 UNK         0.5004 
     61 O         -79.1693   25.3601  -76.1335 O.2       2 UNK        -0.5226 
     62 CA        -81.5106   24.7321  -76.0488 C.3       2 UNK         0.0269 
     63 CB        -81.9881   23.4158  -75.3933 C.3       2 UNK        -0.1926 
     64 N         -81.7664   25.8692  -75.1509 N.am      2 UNK        -0.4687 
     65 C         -81.2631   26.0802  -73.9251 C.2       1 UNK         0.5165 
     66 O         -80.4333   25.3452  -73.3787 O.2       1 UNK        -0.5079 
     67 H67       -80.7390   28.6237  -69.0245 H         1 UNK         0.0900 
     68 H68       -80.2115   27.0109  -69.5078 H         1 UNK         0.0900 
     69 H69       -81.7459   27.2184  -68.6596 H         1 UNK         0.0900 
     70 H70       -80.4922   26.6363  -71.7157 H         1 UNK         0.2959 
     71 H71       -82.9082   27.0877  -73.0665 H         1 UNK         0.1079 
     72 H72       -82.1049   28.6213  -74.8665 H         1 UNK         0.0837 
     73 H73       -82.2578   29.4165  -73.3434 H         1 UNK         0.0837 
     74 H74       -80.6230   30.2653  -71.9200 H         1 UNK         0.0685 
     75 H75       -79.9195   31.4376  -73.0082 H         1 UNK         0.0685 
     76 H76       -78.8313   28.1680  -71.5410 H         1 UNK         0.1434 
     77 H77       -75.0614   29.6767  -70.1800 H         1 UNK         0.1329 
     78 H78       -77.8662   32.2906  -72.1060 H         1 UNK         0.1335 
     79 H79       -75.8470   33.2120  -71.2773 H         1 UNK         0.0680 
     80 H80       -75.2774   32.4411  -69.8181 H         1 UNK         0.0680 
     81 H81       -73.5213   32.5097  -73.9931 H         1 UNK         0.1032 
     82 H82       -75.2067   32.3429  -73.5882 H         1 UNK         0.1032 
     83 H83       -74.9805   29.8814  -73.4356 H         1 UNK         0.0461 
     84 H84       -74.1678   29.7434  -77.3257 H         1 UNK         0.3453 
     85 H85       -73.0345   29.2677  -76.0872 H         1 UNK         0.3453 
     86 H86       -72.1119   30.2294  -74.1748 H         1 UNK         0.2984 
     87 H87       -70.6045   28.8684  -73.4498 H         1 UNK         0.0554 
     88 H88       -69.8055   27.2816  -71.7316 H         1 UNK         0.0847 
     89 H89       -71.4577   26.7749  -71.3770 H         1 UNK         0.0847 
     90 H90       -70.9392   28.4135  -71.0123 H         1 UNK         0.0847 
     91 H91       -71.0563   26.0410  -73.6850 H         1 UNK         0.3141 
     92 H92       -70.2817   25.8339  -76.8189 H         1 UNK         0.0743 
     93 H93       -72.0226   24.3507  -74.7616 H         1 UNK         0.0784 
     94 H94       -71.0655   23.5912  -76.0251 H         1 UNK         0.0784 
     95 H95       -70.2574   24.4584  -74.7386 H         1 UNK         0.0784 
     96 H96       -73.2233   26.0472  -76.7295 H         1 UNK         0.3213 
     97 H97       -73.5450   25.7587  -80.0707 H         1 UNK         0.0855 
     98 H98       -73.9718   23.0369  -78.7369 H         1 UNK         0.0814 
     99 H99       -73.1556   23.3449  -80.2610 H         1 UNK         0.0814 
    100 H100      -74.8842   23.6243  -80.1272 H         1 UNK         0.0814 
    101 H101      -75.3319   24.9780  -77.8621 H         1 UNK         0.3105 
    102 H102      -76.1561   28.3376  -77.0837 H         1 UNK         0.0547 
    103 H103      -77.5894   28.0975  -79.0759 H         1 UNK         0.0837 
    104 H104      -77.9585   26.4369  -78.6473 H         1 UNK         0.0837 
    105 H105      -78.4959   27.7566  -77.6113 H         1 UNK         0.0837 
    106 H106      -77.4717   26.1216  -76.1061 H         1 UNK         0.3020 
    107 H107      -75.1180   25.4522  -73.4265 H         1 UNK         0.1245 
    108 H108      -77.8798   26.7455  -73.6270 H         1 UNK         0.0781 
    109 H109      -76.4336   27.5782  -73.1208 H         1 UNK         0.0781 
    110 H110      -75.3609   27.2717  -70.5183 H         1 UNK         0.0836 
    111 H111      -76.6905   27.1683  -69.3870 H         1 UNK         0.0836 
    112 H112      -77.6591   24.4501  -74.6306 H         1 UNK         0.3022 
    113 H113      -76.1591   21.2965  -75.3127 H         1 UNK         0.0747 
    114 H114      -78.1720   20.4192  -74.1531 H         1 UNK         0.0793 
    115 H115      -77.0170   21.0156  -72.9735 H         1 UNK         0.0793 
    116 H116      -78.4346   21.9779  -73.3678 H         1 UNK         0.0793 
    117 H117      -78.7687   22.1762  -75.8530 H         1 UNK         0.3047 
    118 H118      -78.2501   24.2305  -78.6613 H         1 UNK         0.0822 
    119 H119      -77.8389   21.9761  -79.6487 H         1 UNK         0.0807 
    120 H120      -79.4954   22.4958  -79.9028 H         1 UNK         0.0807 
    121 H121      -79.1258   21.2966  -78.6622 H         1 UNK         0.0807 
    122 H122      -80.6360   23.0948  -77.7618 H         1 UNK         0.2946 
    123 H123      -82.1268   24.9110  -76.9321 H         1 UNK         0.1144 
    124 H124      -81.9933   22.5896  -76.1049 H         1 UNK         0.0793 
    125 H125      -83.0058   23.5099  -75.0139 H         1 UNK         0.0793 
    126 H126      -81.3490   23.1205  -74.5601 H         1 UNK         0.0793 
    127 H127      -82.4161   26.5529  -75.5131 H         1 UNK         0.2896 
@<TRIPOS>BOND
     1    1    2 1    
     2    1   67 1    
     3    1   68 1    
     4    1   69 1    
     5    2    3 2    
     6    2    4 am   BACKBONE|DICT|INTERRES
     7    4    5 1    
     8    4   70 1    
     9    5    6 1    
    10    5   65 1    
    11    5   71 1    
    12    6    7 1    
    13    6   72 1    
    14    6   73 1    
    15    7    8 1    
    16    8    9 1    
    17    8   74 1    
    18    8   75 1    
    19    9   10 ar   
    20    9   14 ar   
    21   10   11 ar   
    22   10   76 1    
    23   11   12 ar   
    24   11   48 1    
    25   12   13 ar   
    26   12   77 1    
    27   13   14 ar   
    28   13   15 1    
    29   14   78 1    
    30   15   16 1    
    31   15   79 1    
    32   15   80 1    
    33   16   17 1    
    34   17   18 1    
    35   17   81 1    
    36   17   82 1    
    37   18   19 1    
    38   18   22 1    
    39   18   83 1    
    40   19   20 am   BACKBONE|DICT|INTERRES
    41   19   21 2    
    42   20   84 1    
    43   20   85 1    
    44   22   23 am   BACKBONE|DICT|INTERRES
    45   22   86 1    
    46   23   24 2    
    47   23   25 1    
    48   25   26 1    
    49   25   27 1    
    50   25   87 1    
    51   26   88 1    
    52   26   89 1    
    53   26   90 1    
    54   27   28 am   BACKBONE|DICT|INTERRES
    55   27   91 1    
    56   28   29 2    
    57   28   30 1    
    58   30   31 1    
    59   30   32 1    
    60   30   92 1    
    61   31   93 1    
    62   31   94 1    
    63   31   95 1    
    64   32   33 am   BACKBONE|DICT|INTERRES
    65   32   96 1    
    66   33   34 2    
    67   33   35 1    
    68   35   36 1    
    69   35   37 1    
    70   35   97 1    
    71   36   98 1    
    72   36   99 1    
    73   36  100 1    
    74   37   38 am   BACKBONE|DICT|INTERRES
    75   37  101 1    
    76   38   39 2    
    77   38   40 1    
    78   40   41 1    
    79   40   42 1    
    80   40  102 1    
    81   41  103 1    
    82   41  104 1    
    83   41  105 1    
    84   42   43 am   BACKBONE|DICT|INTERRES
    85   42  106 1    
    86   43   44 2    
    87   43   45 1    
    88   45   46 1    
    89   45   49 1    
    90   45  107 1    
    91   46   47 1    
    92   46  108 1    
    93   46  109 1    
    94   47   48 1    
    95   48  110 1    
    96   48  111 1    
    97   49   50 am   BACKBONE|DICT|INTERRES
    98   49  112 1    
    99   50   51 2    
   100   50   52 1    
   101   52   53 1    
   102   52   54 1    
   103   52  113 1    
   104   53  114 1    
   105   53  115 1    
   106   53  116 1    
   107   54   55 am   BACKBONE|DICT|INTERRES
   108   54  117 1    
   109   55   56 2    
   110   55   57 1    
   111   57   58 1    
   112   57   59 1    
   113   57  118 1    
   114   58  119 1    
   115   58  120 1    
   116   58  121 1    
   117   59   60 am   BACKBONE|DICT|INTERRES
   118   59  122 1    
   119   60   61 2    
   120   60   62 1    
   121   62   63 1    
   122   62   64 1    
   123   62  123 1    
   124   63  124 1    
   125   63  125 1    
   126   63  126 1    
   127   64   65 am   BACKBONE|DICT|INTERRES
   128   64  127 1    
   129   65   66 2    
@<TRIPOS>SUBSTRUCTURE
     1 UNK         1 GROUP             0       ****    0 ROOT    
