@<TRIPOS>MOLECULE
3R135
127   129    1
SMALL
USER_CHARGES


@<TRIPOS>ATOM
      1 CA        -80.2170   23.8610  -72.0619 C.3       0 UNK        -0.1998 
      2 C         -81.0396   25.1009  -72.3822 C.2       0 UNK         0.4909 
      3 O         -82.2671   25.0150  -72.4242 O.2       0 UNK        -0.5240 
      4 N         -80.3757   26.2412  -72.6108 N.am      1 UNK        -0.4739 
      5 CA        -81.0010   27.5229  -72.9517 C.3       1 UNK         0.0864 
      6 C6        -80.6818   28.6398  -71.9182 C.3       11 UNK        -0.0881 
      7 S7        -81.1712   28.1740  -70.2216 S.3       11 UNK        -0.2682 
      8 C8        -79.8247   28.8825  -69.2128 C.3       11 UNK         0.0289 
      9 C9        -78.4271   28.4413  -69.6406 C.ar      11 UNK        -0.0687 
     10 C10       -78.1118   27.0853  -69.7877 C.ar      11 UNK        -0.0823 
     11 C11       -76.8240   26.6899  -70.1663 C.ar      11 UNK        -0.0830 
     12 C12       -75.8422   27.6660  -70.3665 C.ar      11 UNK        -0.1021 
     13 C13       -76.1458   29.0232  -70.2375 C.ar      11 UNK        -0.0753 
     14 C14       -77.4403   29.4046  -69.8763 C.ar      11 UNK        -0.0933 
     15 C15       -75.0644   30.0708  -70.4621 C.3       11 UNK         0.0166 
     16 S16       -74.4019   30.0260  -72.1566 S.3       11 UNK        -0.2615 
     17 C17       -75.7896   30.7243  -73.1169 C.3       11 UNK        -0.0865 
     18 CA        -75.4335   30.9772  -74.6063 C.3       10 UNK         0.0862 
     19 C         -74.3968   32.1297  -74.7764 C.2       10 UNK         0.5551 
     20 N         -73.1842   31.8756  -75.2574 N.am      10 UNK        -0.7319 
     21 O         -74.7088   33.2793  -74.4756 O.2       10 UNK        -0.5018 
     22 N         -75.0815   29.7237  -75.2882 N.am      10 UNK        -0.4509 
     23 C         -75.0382   29.5515  -76.6155 C.2       10 UNK         0.4899 
     24 O         -75.4521   30.3861  -77.4212 O.2       10 UNK        -0.4839 
     25 CA        -74.4391   28.2254  -77.1294 C.3       9 UNK         0.0222 
     26 CB        -73.7523   28.3787  -78.5018 C.3       9 UNK        -0.1966 
     27 N         -73.5426   27.5616  -76.1739 N.am      9 UNK        -0.4218 
     28 C         -72.4028   28.0309  -75.6424 C.2       9 UNK         0.5020 
     29 O         -71.9457   29.1493  -75.8839 O.2       9 UNK        -0.5274 
     30 CA        -71.6569   27.1160  -74.6569 C.3       8 UNK         0.0270 
     31 CB        -72.1381   27.3755  -73.2203 C.3       8 UNK        -0.1976 
     32 N         -71.8437   25.6957  -74.9677 N.am      8 UNK        -0.4313 
     33 C         -70.8704   24.8495  -75.3313 C.2       8 UNK         0.5041 
     34 O         -69.6865   25.1719  -75.4436 O.2       8 UNK        -0.5577 
     35 CA        -71.2694   23.3856  -75.6073 C.3       7 UNK         0.0284 
     36 CB        -71.0394   22.5245  -74.3545 C.3       7 UNK        -0.1958 
     37 N         -72.6572   23.2270  -76.0493 N.am      7 UNK        -0.4454 
     38 C         -73.1334   23.6451  -77.2295 C.2       7 UNK         0.5089 
     39 O         -72.4298   24.1311  -78.1151 O.2       7 UNK        -0.5125 
     40 CA        -74.6522   23.5248  -77.4633 C.3       6 UNK         0.0408 
     41 CB        -74.9615   22.2815  -78.3120 C.3       6 UNK        -0.1791 
     42 N         -75.5055   23.5079  -76.2649 N.am      6 UNK        -0.4762 
     43 C         -75.5169   24.4183  -75.2792 C.2       6 UNK         0.5007 
     44 O         -74.6591   25.2932  -75.1624 O.2       6 UNK        -0.5032 
     45 CA        -76.7120   24.3706  -74.3051 C.3       5 UNK         0.0783 
     46 C46       -76.6071   25.4193  -73.1662 C.3       11 UNK        -0.0857 
     47 S47       -75.5044   24.8517  -71.8274 S.3       11 UNK        -0.2512 
     48 C48       -76.4957   25.2086  -70.3348 C.3       11 UNK         0.0225 
     49 N         -77.9301   24.5565  -75.0951 N.am      5 UNK        -0.4615 
     50 C         -78.7035   23.5628  -75.5572 C.2       4 UNK         0.5053 
     51 O         -78.5610   22.3872  -75.2231 O.2       4 UNK        -0.5105 
     52 CA        -79.7804   23.9108  -76.6028 C.3       4 UNK         0.0263 
     53 CB        -81.1826   23.9183  -75.9769 C.3       4 UNK        -0.1981 
     54 N         -79.5267   25.1852  -77.2815 N.am      4 UNK        -0.4224 
     55 C         -78.5655   25.3573  -78.2038 C.2       3 UNK         0.4895 
     56 O         -77.8861   24.4342  -78.6526 O.2       3 UNK        -0.5091 
     57 CA        -78.2841   26.7876  -78.7046 C.3       3 UNK         0.0250 
     58 CB        -78.8691   26.9883  -80.1118 C.3       3 UNK        -0.1996 
     59 N         -78.7661   27.8611  -77.8296 N.am      3 UNK        -0.4254 
     60 C         -78.3929   28.0618  -76.5586 C.2       2 UNK         0.5004 
     61 O         -77.6078   27.3292  -75.9548 O.2       2 UNK        -0.5226 
     62 CA        -79.0251   29.2495  -75.8083 C.3       2 UNK         0.0269 
     63 CB        -80.0342   30.0730  -76.6413 C.3       2 UNK        -0.1926 
     64 N         -79.6346   28.8155  -74.5457 N.am      2 UNK        -0.4687 
     65 C         -80.5766   27.8710  -74.3906 C.2       1 UNK         0.5165 
     66 O         -81.0893   27.2621  -75.3318 O.2       1 UNK        -0.5079 
     67 H67       -80.4777   23.0528  -72.7449 H         1 UNK         0.0900 
     68 H68       -79.1471   24.0367  -72.1483 H         1 UNK         0.0900 
     69 H69       -80.4245   23.5273  -71.0456 H         1 UNK         0.0900 
     70 H70       -79.3678   26.2499  -72.5790 H         1 UNK         0.2959 
     71 H71       -82.0876   27.4163  -72.9833 H         1 UNK         0.1079 
     72 H72       -79.6197   28.8823  -71.9258 H         1 UNK         0.0837 
     73 H73       -81.2084   29.5601  -72.1781 H         1 UNK         0.0837 
     74 H74       -79.9790   28.5941  -68.1724 H         1 UNK         0.0685 
     75 H75       -79.9122   29.9697  -69.2449 H         1 UNK         0.0685 
     76 H76       -78.8755   26.3406  -69.6086 H         1 UNK         0.1434 
     77 H77       -74.8380   27.3726  -70.6409 H         1 UNK         0.1329 
     78 H78       -77.6762   30.4542  -69.7648 H         1 UNK         0.1335 
     79 H79       -75.4331   31.0744  -70.2444 H         1 UNK         0.0680 
     80 H80       -74.2474   29.8859  -69.7634 H         1 UNK         0.0680 
     81 H81       -76.1244   31.6488  -72.6425 H         1 UNK         0.1032 
     82 H82       -76.6322   30.0344  -73.0511 H         1 UNK         0.1032 
     83 H83       -76.3429   31.3447  -75.0846 H         1 UNK         0.0461 
     84 H84       -72.5286   32.6326  -75.3649 H         1 UNK         0.3453 
     85 H85       -72.9043   30.9296  -75.4919 H         1 UNK         0.3453 
     86 H86       -74.7187   28.9916  -74.6960 H         1 UNK         0.2984 
     87 H87       -75.2803   27.5449  -77.2614 H         1 UNK         0.0554 
     88 H88       -74.4557   28.7331  -79.2562 H         1 UNK         0.0847 
     89 H89       -73.3552   27.4265  -78.8539 H         1 UNK         0.0847 
     90 H90       -72.9290   29.0927  -78.4632 H         1 UNK         0.0847 
     91 H91       -73.8886   26.6629  -75.8369 H         1 UNK         0.3141 
     92 H92       -70.5992   27.3815  -74.7116 H         1 UNK         0.0743 
     93 H93       -71.9809   28.4180  -72.9411 H         1 UNK         0.0784 
     94 H94       -73.2008   27.1575  -73.1011 H         1 UNK         0.0784 
     95 H95       -71.5904   26.7642  -72.5030 H         1 UNK         0.0784 
     96 H96       -72.7981   25.3469  -74.9294 H         1 UNK         0.3213 
     97 H97       -70.6183   23.0142  -76.4018 H         1 UNK         0.0855 
     98 H98       -71.6759   22.8379  -73.5259 H         1 UNK         0.0814 
     99 H99       -70.0049   22.5982  -74.0158 H         1 UNK         0.0814 
    100 H100      -71.2383   21.4712  -74.5534 H         1 UNK         0.0814 
    101 H101      -73.3115   22.8378  -75.3862 H         1 UNK         0.3105 
    102 H102      -74.9480   24.4045  -78.0387 H         1 UNK         0.0547 
    103 H103      -74.7404   21.3597  -77.7729 H         1 UNK         0.0837 
    104 H104      -74.3690   22.2743  -79.2281 H         1 UNK         0.0837 
    105 H105      -76.0100   22.2556  -78.6101 H         1 UNK         0.0837 
    106 H106      -76.2545   22.8288  -76.2739 H         1 UNK         0.3020 
    107 H107      -76.7198   23.3768  -73.8510 H         1 UNK         0.1245 
    108 H108      -77.5907   25.6016  -72.7395 H         1 UNK         0.0781 
    109 H109      -76.2731   26.3942  -73.5282 H         1 UNK         0.0781 
    110 H110      -75.9391   24.8746  -69.4583 H         1 UNK         0.0836 
    111 H111      -77.4067   24.6095  -70.3667 H         1 UNK         0.0836 
    112 H112      -78.0510   25.4934  -75.4716 H         1 UNK         0.3022 
    113 H113      -79.7617   23.1177  -77.3536 H         1 UNK         0.0747 
    114 H114      -81.2857   24.6942  -75.2212 H         1 UNK         0.0793 
    115 H115      -81.9523   24.0833  -76.7309 H         1 UNK         0.0793 
    116 H116      -81.4009   22.9646  -75.4944 H         1 UNK         0.0793 
    117 H117      -80.0405   25.9917  -76.9462 H         1 UNK         0.3047 
    118 H118      -77.1987   26.8882  -78.7702 H         1 UNK         0.0822 
    119 H119      -78.5847   27.9554  -80.5271 H         1 UNK         0.0807 
    120 H120      -79.9582   26.9294  -80.1081 H         1 UNK         0.0807 
    121 H121      -78.5041   26.2243  -80.8000 H         1 UNK         0.0807 
    122 H122      -79.4396   28.4975  -78.2310 H         1 UNK         0.2946 
    123 H123      -78.1962   29.9079  -75.5480 H         1 UNK         0.1144 
    124 H124      -80.4168   30.9152  -76.0645 H         1 UNK         0.0793 
    125 H125      -80.8925   29.4792  -76.9584 H         1 UNK         0.0793 
    126 H126      -79.5656   30.4914  -77.5332 H         1 UNK         0.0793 
    127 H127      -79.2474   29.2357  -73.7138 H         1 UNK         0.2896 
@<TRIPOS>BOND
     1    1    2 1    
     2    1   67 1    
     3    1   68 1    
     4    1   69 1    
     5    2    3 2    
     6    2    4 am   BACKBONE|DICT|INTERRES
     7    4    5 1    
     8    4   70 1    
     9    5    6 1    
    10    5   65 1    
    11    5   71 1    
    12    6    7 1    
    13    6   72 1    
    14    6   73 1    
    15    7    8 1    
    16    8    9 1    
    17    8   74 1    
    18    8   75 1    
    19    9   10 ar   
    20    9   14 ar   
    21   10   11 ar   
    22   10   76 1    
    23   11   12 ar   
    24   11   48 1    
    25   12   13 ar   
    26   12   77 1    
    27   13   14 ar   
    28   13   15 1    
    29   14   78 1    
    30   15   16 1    
    31   15   79 1    
    32   15   80 1    
    33   16   17 1    
    34   17   18 1    
    35   17   81 1    
    36   17   82 1    
    37   18   19 1    
    38   18   22 1    
    39   18   83 1    
    40   19   20 am   BACKBONE|DICT|INTERRES
    41   19   21 2    
    42   20   84 1    
    43   20   85 1    
    44   22   23 am   BACKBONE|DICT|INTERRES
    45   22   86 1    
    46   23   24 2    
    47   23   25 1    
    48   25   26 1    
    49   25   27 1    
    50   25   87 1    
    51   26   88 1    
    52   26   89 1    
    53   26   90 1    
    54   27   28 am   BACKBONE|DICT|INTERRES
    55   27   91 1    
    56   28   29 2    
    57   28   30 1    
    58   30   31 1    
    59   30   32 1    
    60   30   92 1    
    61   31   93 1    
    62   31   94 1    
    63   31   95 1    
    64   32   33 am   BACKBONE|DICT|INTERRES
    65   32   96 1    
    66   33   34 2    
    67   33   35 1    
    68   35   36 1    
    69   35   37 1    
    70   35   97 1    
    71   36   98 1    
    72   36   99 1    
    73   36  100 1    
    74   37   38 am   BACKBONE|DICT|INTERRES
    75   37  101 1    
    76   38   39 2    
    77   38   40 1    
    78   40   41 1    
    79   40   42 1    
    80   40  102 1    
    81   41  103 1    
    82   41  104 1    
    83   41  105 1    
    84   42   43 am   BACKBONE|DICT|INTERRES
    85   42  106 1    
    86   43   44 2    
    87   43   45 1    
    88   45   46 1    
    89   45   49 1    
    90   45  107 1    
    91   46   47 1    
    92   46  108 1    
    93   46  109 1    
    94   47   48 1    
    95   48  110 1    
    96   48  111 1    
    97   49   50 am   BACKBONE|DICT|INTERRES
    98   49  112 1    
    99   50   51 2    
   100   50   52 1    
   101   52   53 1    
   102   52   54 1    
   103   52  113 1    
   104   53  114 1    
   105   53  115 1    
   106   53  116 1    
   107   54   55 am   BACKBONE|DICT|INTERRES
   108   54  117 1    
   109   55   56 2    
   110   55   57 1    
   111   57   58 1    
   112   57   59 1    
   113   57  118 1    
   114   58  119 1    
   115   58  120 1    
   116   58  121 1    
   117   59   60 am   BACKBONE|DICT|INTERRES
   118   59  122 1    
   119   60   61 2    
   120   60   62 1    
   121   62   63 1    
   122   62   64 1    
   123   62  123 1    
   124   63  124 1    
   125   63  125 1    
   126   63  126 1    
   127   64   65 am   BACKBONE|DICT|INTERRES
   128   64  127 1    
   129   65   66 2    
@<TRIPOS>SUBSTRUCTURE
     1 UNK         1 GROUP             0       ****    0 ROOT    
