@<TRIPOS>MOLECULE
3R135
127   129    1
SMALL
USER_CHARGES


@<TRIPOS>ATOM
      1 CA        -82.8290   28.4566  -73.3749 C.3       0 UNK        -0.1998 
      2 C         -81.8644   28.7145  -74.5219 C.2       0 UNK         0.4909 
      3 O         -82.2864   29.1380  -75.5987 O.2       0 UNK        -0.5240 
      4 N         -80.5701   28.4430  -74.3109 N.am      1 UNK        -0.4739 
      5 CA        -79.4798   28.6362  -75.2781 C.3       1 UNK         0.0864 
      6 C6        -78.1217   28.8552  -74.5620 C.3       11 UNK        -0.0881 
      7 S7        -78.0984   30.3544  -73.5181 S.3       11 UNK        -0.2682 
      8 C8        -78.4796   29.7077  -71.8556 C.3       11 UNK         0.0289 
      9 C9        -77.4211   28.7373  -71.3521 C.ar      11 UNK        -0.0687 
     10 C10       -77.6842   27.3649  -71.2975 C.ar      11 UNK        -0.0823 
     11 C11       -76.7133   26.4697  -70.8382 C.ar      11 UNK        -0.0830 
     12 C12       -75.4666   26.9652  -70.4343 C.ar      11 UNK        -0.1021 
     13 C13       -75.1908   28.3361  -70.4834 C.ar      11 UNK        -0.0753 
     14 C14       -76.1804   29.2171  -70.9273 C.ar      11 UNK        -0.0933 
     15 C15       -73.8351   28.8633  -70.0310 C.3       11 UNK         0.0166 
     16 S16       -72.7781   29.3579  -71.4333 S.3       11 UNK        -0.2615 
     17 C17       -73.3084   31.0821  -71.7350 C.3       11 UNK        -0.0865 
     18 CA        -74.0619   31.2621  -73.0868 C.3       10 UNK         0.0862 
     19 C         -74.8010   32.6315  -73.1934 C.2       10 UNK         0.5551 
     20 N         -74.9487   33.2108  -74.3790 N.am      10 UNK        -0.7319 
     21 O         -75.2735   33.1677  -72.1938 O.2       10 UNK        -0.5018 
     22 N         -73.2384   30.9150  -74.2586 N.am      10 UNK        -0.4509 
     23 C         -72.1187   31.5319  -74.6691 C.2       10 UNK         0.4899 
     24 O         -71.6294   32.5095  -74.1010 O.2       10 UNK        -0.4839 
     25 CA        -71.4436   30.9801  -75.9464 C.3       9 UNK         0.0222 
     26 CB        -69.9367   31.3078  -76.0240 C.3       9 UNK        -0.1966 
     27 N         -71.6956   29.5483  -76.1536 N.am      9 UNK        -0.4218 
     28 C         -71.3371   28.5356  -75.3494 C.2       9 UNK         0.5020 
     29 O         -70.5291   28.6517  -74.4267 O.2       9 UNK        -0.5274 
     30 CA        -71.9998   27.1613  -75.6004 C.3       8 UNK         0.0270 
     31 CB        -72.3684   26.4717  -74.2702 C.3       8 UNK        -0.1976 
     32 N         -73.1674   27.1624  -76.5015 N.am      8 UNK        -0.4313 
     33 C         -74.3040   27.8666  -76.3901 C.2       8 UNK         0.5041 
     34 O         -74.5106   28.7063  -75.5154 O.2       8 UNK        -0.5577 
     35 CA        -75.3876   27.6187  -77.4496 C.3       7 UNK         0.0284 
     36 CB        -74.9698   28.1392  -78.8401 C.3       7 UNK        -0.1958 
     37 N         -75.8511   26.2275  -77.4806 N.am      7 UNK        -0.4454 
     38 C         -75.1917   25.1404  -77.9017 C.2       7 UNK         0.5089 
     39 O         -74.0560   25.1677  -78.3824 O.2       7 UNK        -0.5125 
     40 CA        -75.9240   23.8009  -77.7026 C.3       6 UNK         0.0408 
     41 CB        -75.2522   22.6316  -78.4523 C.3       6 UNK        -0.1791 
     42 N         -76.0971   23.4754  -76.2816 N.am      6 UNK        -0.4762 
     43 C         -75.1334   23.3274  -75.3548 C.2       6 UNK         0.5007 
     44 O         -73.9306   23.4289  -75.5951 O.2       6 UNK        -0.5032 
     45 CA        -75.5674   22.9948  -73.9096 C.3       5 UNK         0.0783 
     46 C46       -75.5427   24.2702  -73.0327 C.3       11 UNK        -0.0857 
     47 S47       -75.6982   23.8747  -71.2607 S.3       11 UNK        -0.2512 
     48 C48       -77.0508   24.9821  -70.7417 C.3       11 UNK         0.0225 
     49 N         -76.8628   22.3090  -73.8468 N.am      5 UNK        -0.4615 
     50 C         -77.0976   21.0706  -74.3008 C.2       4 UNK         0.5053 
     51 O         -76.2133   20.3205  -74.7151 O.2       4 UNK        -0.5105 
     52 CA        -78.5612   20.5800  -74.3192 C.3       4 UNK         0.0263 
     53 CB        -78.8042   19.5954  -73.1633 C.3       4 UNK        -0.1981 
     54 N         -79.5961   21.6254  -74.2777 N.am      4 UNK        -0.4224 
     55 C         -79.7151   22.6621  -75.1206 C.2       3 UNK         0.4895 
     56 O         -78.9009   22.9031  -76.0145 O.2       3 UNK        -0.5091 
     57 CA        -80.9211   23.5969  -74.8885 C.3       3 UNK         0.0250 
     58 CB        -80.9617   24.1174  -73.4377 C.3       3 UNK        -0.1996 
     59 N         -80.8930   24.7575  -75.7778 N.am      3 UNK        -0.4254 
     60 C         -81.1132   24.7644  -77.0992 C.2       2 UNK         0.5004 
     61 O         -81.5309   23.7879  -77.7242 O.2       2 UNK        -0.5226 
     62 CA        -80.8282   26.0853  -77.8511 C.3       2 UNK         0.0269 
     63 CB        -81.9873   26.4550  -78.7938 C.3       2 UNK        -0.1926 
     64 N         -80.5641   27.2282  -76.9667 N.am      2 UNK        -0.4687 
     65 C         -79.4384   27.4572  -76.2774 C.2       1 UNK         0.5165 
     66 O         -78.4451   26.7322  -76.3547 O.2       1 UNK        -0.5079 
     67 H67       -83.3475   29.3770  -73.1080 H         1 UNK         0.0900 
     68 H68       -83.5743   27.7188  -73.6708 H         1 UNK         0.0900 
     69 H69       -82.3181   28.0856  -72.4866 H         1 UNK         0.0900 
     70 H70       -80.2885   28.0783  -73.4140 H         1 UNK         0.2959 
     71 H71       -79.6887   29.5332  -75.8661 H         1 UNK         0.1079 
     72 H72       -77.3277   28.9866  -75.2969 H         1 UNK         0.0837 
     73 H73       -77.8370   27.9785  -73.9802 H         1 UNK         0.0837 
     74 H74       -79.4654   29.2425  -71.8585 H         1 UNK         0.0685 
     75 H75       -78.5488   30.5492  -71.1649 H         1 UNK         0.0685 
     76 H76       -78.6513   26.9935  -71.6064 H         1 UNK         0.1434 
     77 H77       -74.7104   26.2825  -70.0720 H         1 UNK         0.1329 
     78 H78       -75.9864   30.2795  -70.9555 H         1 UNK         0.1335 
     79 H79       -73.9681   29.6973  -69.3407 H         1 UNK         0.0680 
     80 H80       -73.3070   28.0936  -69.4662 H         1 UNK         0.0680 
     81 H81       -72.4271   31.7236  -71.7024 H         1 UNK         0.1032 
     82 H82       -73.9272   31.4086  -70.8987 H         1 UNK         0.1032 
     83 H83       -74.8693   30.5301  -73.1021 H         1 UNK         0.0461 
     84 H84       -74.5810   32.7719  -75.2073 H         1 UNK         0.3453 
     85 H85       -75.4368   34.0899  -74.4435 H         1 UNK         0.3453 
     86 H86       -73.5840   30.1140  -74.7856 H         1 UNK         0.2984 
     87 H87       -71.9287   31.4890  -76.7804 H         1 UNK         0.0554 
     88 H88       -69.7724   32.3859  -76.0409 H         1 UNK         0.0847 
     89 H89       -69.4863   30.8989  -76.9283 H         1 UNK         0.0847 
     90 H90       -69.3898   30.9128  -75.1676 H         1 UNK         0.0847 
     91 H91       -72.3587   29.3276  -76.8826 H         1 UNK         0.3141 
     92 H92       -71.2405   26.5508  -76.0909 H         1 UNK         0.0743 
     93 H93       -71.5050   26.3866  -73.6094 H         1 UNK         0.0784 
     94 H94       -72.7330   25.4612  -74.4431 H         1 UNK         0.0784 
     95 H95       -73.1383   27.0233  -73.7285 H         1 UNK         0.0784 
     96 H96       -73.1438   26.4785  -77.2553 H         1 UNK         0.3213 
     97 H97       -76.2568   28.2036  -77.1507 H         1 UNK         0.0855 
     98 H98       -74.0820   27.6385  -79.2263 H         1 UNK         0.0814 
     99 H99       -74.7452   29.2059  -78.8009 H         1 UNK         0.0814 
    100 H100      -75.7706   28.0054  -79.5672 H         1 UNK         0.0814 
    101 H101      -76.7710   26.0966  -77.0641 H         1 UNK         0.3105 
    102 H102      -76.9267   23.9229  -78.1155 H         1 UNK         0.0547 
    103 H103      -75.8191   21.7084  -78.3333 H         1 UNK         0.0837 
    104 H104      -74.2368   22.4485  -78.0995 H         1 UNK         0.0837 
    105 H105      -75.1904   22.8404  -79.5209 H         1 UNK         0.0837 
    106 H106      -77.0649   23.3382  -75.9957 H         1 UNK         0.3020 
    107 H107      -74.8145   22.3043  -73.5217 H         1 UNK         0.1245 
    108 H108      -76.3284   24.9641  -73.3383 H         1 UNK         0.0781 
    109 H109      -74.6020   24.8091  -73.1525 H         1 UNK         0.0781 
    110 H110      -77.3048   24.7549  -69.7056 H         1 UNK         0.0836 
    111 H111      -77.9372   24.7460  -71.3325 H         1 UNK         0.0836 
    112 H112      -77.6422   22.8491  -73.5049 H         1 UNK         0.3022 
    113 H113      -78.6956   20.0406  -75.2590 H         1 UNK         0.0747 
    114 H114      -79.7922   19.1393  -73.2285 H         1 UNK         0.0793 
    115 H115      -78.0755   18.7834  -73.1799 H         1 UNK         0.0793 
    116 H116      -78.7219   20.0862  -72.1926 H         1 UNK         0.0793 
    117 H117      -80.3033   21.5117  -73.5658 H         1 UNK         0.3047 
    118 H118      -81.8311   23.0285  -75.0917 H         1 UNK         0.0822 
    119 H119      -81.7899   24.8113  -73.2906 H         1 UNK         0.0807 
    120 H120      -80.0411   24.6374  -73.1690 H         1 UNK         0.0807 
    121 H121      -81.1023   23.3078  -72.7210 H         1 UNK         0.0807 
    122 H122      -80.5168   25.6056  -75.3842 H         1 UNK         0.2946 
    123 H123      -79.9366   25.9093  -78.4573 H         1 UNK         0.1144 
    124 H124      -81.7643   27.3590  -79.3608 H         1 UNK         0.0793 
    125 H125      -82.9139   26.6234  -78.2436 H         1 UNK         0.0793 
    126 H126      -82.1763   25.6617  -79.5183 H         1 UNK         0.0793 
    127 H127      -81.3446   27.8539  -76.7871 H         1 UNK         0.2896 
@<TRIPOS>BOND
     1    1    2 1    
     2    1   67 1    
     3    1   68 1    
     4    1   69 1    
     5    2    3 2    
     6    2    4 am   BACKBONE|DICT|INTERRES
     7    4    5 1    
     8    4   70 1    
     9    5    6 1    
    10    5   65 1    
    11    5   71 1    
    12    6    7 1    
    13    6   72 1    
    14    6   73 1    
    15    7    8 1    
    16    8    9 1    
    17    8   74 1    
    18    8   75 1    
    19    9   10 ar   
    20    9   14 ar   
    21   10   11 ar   
    22   10   76 1    
    23   11   12 ar   
    24   11   48 1    
    25   12   13 ar   
    26   12   77 1    
    27   13   14 ar   
    28   13   15 1    
    29   14   78 1    
    30   15   16 1    
    31   15   79 1    
    32   15   80 1    
    33   16   17 1    
    34   17   18 1    
    35   17   81 1    
    36   17   82 1    
    37   18   19 1    
    38   18   22 1    
    39   18   83 1    
    40   19   20 am   BACKBONE|DICT|INTERRES
    41   19   21 2    
    42   20   84 1    
    43   20   85 1    
    44   22   23 am   BACKBONE|DICT|INTERRES
    45   22   86 1    
    46   23   24 2    
    47   23   25 1    
    48   25   26 1    
    49   25   27 1    
    50   25   87 1    
    51   26   88 1    
    52   26   89 1    
    53   26   90 1    
    54   27   28 am   BACKBONE|DICT|INTERRES
    55   27   91 1    
    56   28   29 2    
    57   28   30 1    
    58   30   31 1    
    59   30   32 1    
    60   30   92 1    
    61   31   93 1    
    62   31   94 1    
    63   31   95 1    
    64   32   33 am   BACKBONE|DICT|INTERRES
    65   32   96 1    
    66   33   34 2    
    67   33   35 1    
    68   35   36 1    
    69   35   37 1    
    70   35   97 1    
    71   36   98 1    
    72   36   99 1    
    73   36  100 1    
    74   37   38 am   BACKBONE|DICT|INTERRES
    75   37  101 1    
    76   38   39 2    
    77   38   40 1    
    78   40   41 1    
    79   40   42 1    
    80   40  102 1    
    81   41  103 1    
    82   41  104 1    
    83   41  105 1    
    84   42   43 am   BACKBONE|DICT|INTERRES
    85   42  106 1    
    86   43   44 2    
    87   43   45 1    
    88   45   46 1    
    89   45   49 1    
    90   45  107 1    
    91   46   47 1    
    92   46  108 1    
    93   46  109 1    
    94   47   48 1    
    95   48  110 1    
    96   48  111 1    
    97   49   50 am   BACKBONE|DICT|INTERRES
    98   49  112 1    
    99   50   51 2    
   100   50   52 1    
   101   52   53 1    
   102   52   54 1    
   103   52  113 1    
   104   53  114 1    
   105   53  115 1    
   106   53  116 1    
   107   54   55 am   BACKBONE|DICT|INTERRES
   108   54  117 1    
   109   55   56 2    
   110   55   57 1    
   111   57   58 1    
   112   57   59 1    
   113   57  118 1    
   114   58  119 1    
   115   58  120 1    
   116   58  121 1    
   117   59   60 am   BACKBONE|DICT|INTERRES
   118   59  122 1    
   119   60   61 2    
   120   60   62 1    
   121   62   63 1    
   122   62   64 1    
   123   62  123 1    
   124   63  124 1    
   125   63  125 1    
   126   63  126 1    
   127   64   65 am   BACKBONE|DICT|INTERRES
   128   64  127 1    
   129   65   66 2    
@<TRIPOS>SUBSTRUCTURE
     1 UNK         1 GROUP             0       ****    0 ROOT    
