@<TRIPOS>MOLECULE
3R135
127   129    1
SMALL
USER_CHARGES


@<TRIPOS>ATOM
      1 CA        -84.3438   30.4364  -75.7927 C.3       0 UNK        -0.1998 
      2 C         -83.1379   29.6650  -76.3073 C.2       0 UNK         0.4909 
      3 O         -83.0134   29.4582  -77.5148 O.2       0 UNK        -0.5240 
      4 N         -82.2479   29.2406  -75.4001 N.am      1 UNK        -0.4739 
      5 CA        -81.0253   28.4833  -75.7080 C.3       1 UNK         0.0864 
      6 C6        -80.0532   28.4458  -74.5010 C.3       11 UNK        -0.0881 
      7 S7        -79.5510   30.1222  -73.9848 S.3       11 UNK        -0.2682 
      8 C8        -77.7552   30.0923  -74.2761 C.3       11 UNK         0.0289 
      9 C9        -77.0055   29.4444  -73.1207 C.ar      11 UNK        -0.0687 
     10 C10       -76.3928   28.1961  -73.2744 C.ar      11 UNK        -0.0823 
     11 C11       -75.6557   27.6359  -72.2258 C.ar      11 UNK        -0.0830 
     12 C12       -75.5663   28.3124  -71.0076 C.ar      11 UNK        -0.1021 
     13 C13       -76.1612   29.5668  -70.8469 C.ar      11 UNK        -0.0753 
     14 C14       -76.8793   30.1269  -71.9067 C.ar      11 UNK        -0.0933 
     15 C15       -76.0153   30.3266  -69.5367 C.3       11 UNK         0.0166 
     16 S16       -74.6431   31.5265  -69.5954 S.3       11 UNK        -0.2615 
     17 C17       -73.1822   30.4270  -69.6355 C.3       11 UNK        -0.0865 
     18 CA        -72.3471   30.5208  -70.9432 C.3       10 UNK         0.0862 
     19 C         -71.1755   29.4932  -70.9151 C.2       10 UNK         0.5551 
     20 N         -71.1100   28.5288  -71.8262 N.am      10 UNK        -0.7319 
     21 O         -70.3105   29.5759  -70.0467 O.2       10 UNK        -0.5018 
     22 N         -73.1790   30.4746  -72.1593 N.am      10 UNK        -0.4509 
     23 C         -72.7681   30.8761  -73.3675 C.2       10 UNK         0.4899 
     24 O         -71.6564   31.3586  -73.5953 O.2       10 UNK        -0.4839 
     25 CA        -73.7780   30.7426  -74.5157 C.3       9 UNK         0.0222 
     26 CB        -74.4725   32.0858  -74.7899 C.3       9 UNK        -0.1966 
     27 N         -73.1188   30.2693  -75.7337 N.am      9 UNK        -0.4218 
     28 C         -72.7334   29.0023  -75.9231 C.2       9 UNK         0.5020 
     29 O         -72.9565   28.0876  -75.1234 O.2       9 UNK        -0.5274 
     30 CA        -71.9673   28.6981  -77.2159 C.3       8 UNK         0.0270 
     31 CB        -70.4549   28.9140  -77.0333 C.3       8 UNK        -0.1976 
     32 N         -72.2401   27.3074  -77.5494 N.am      8 UNK        -0.4313 
     33 C         -72.2434   26.7545  -78.7680 C.2       8 UNK         0.5041 
     34 O         -71.8661   27.3324  -79.7880 O.2       8 UNK        -0.5577 
     35 CA        -72.8030   25.3214  -78.8653 C.3       7 UNK         0.0284 
     36 CB        -71.6785   24.2853  -78.7103 C.3       7 UNK        -0.1958 
     37 N         -73.8261   25.0860  -77.8433 N.am      7 UNK        -0.4454 
     38 C         -75.0581   25.6053  -77.8682 C.2       7 UNK         0.5089 
     39 O         -75.5579   26.1016  -78.8791 O.2       7 UNK        -0.5125 
     40 CA        -75.8270   25.6455  -76.5291 C.3       6 UNK         0.0408 
     41 CB        -77.3029   26.0401  -76.7107 C.3       6 UNK        -0.1791 
     42 N         -75.7577   24.4367  -75.6976 N.am      6 UNK        -0.4762 
     43 C         -74.6824   23.9815  -75.0325 C.2       6 UNK         0.5007 
     44 O         -73.5418   24.4122  -75.2082 O.2       6 UNK        -0.5032 
     45 CA        -74.9082   22.9220  -73.9317 C.3       5 UNK         0.0783 
     46 C46       -74.7308   23.5429  -72.5200 C.3       11 UNK        -0.0857 
     47 S47       -75.9279   24.8698  -72.1125 S.3       11 UNK        -0.2512 
     48 C48       -74.8948   26.3360  -72.4263 C.3       11 UNK         0.0225 
     49 N         -76.1899   22.2253  -74.0464 N.am      5 UNK        -0.4615 
     50 C         -76.4926   21.3147  -74.9798 C.2       4 UNK         0.5053 
     51 O         -75.6927   20.9193  -75.8279 O.2       4 UNK        -0.5105 
     52 CA        -77.9263   20.7484  -74.9748 C.3       4 UNK         0.0263 
     53 CB        -77.9332   19.3154  -74.4171 C.3       4 UNK        -0.1981 
     54 N         -78.9034   21.5554  -74.2312 N.am      4 UNK        -0.4224 
     55 C         -79.2702   22.8044  -74.5486 C.2       3 UNK         0.4895 
     56 O         -78.7713   23.4499  -75.4721 O.2       3 UNK        -0.5091 
     57 CA        -80.3238   23.4571  -73.6377 C.3       3 UNK         0.0250 
     58 CB        -79.6346   24.2535  -72.5171 C.3       3 UNK        -0.1996 
     59 N         -81.2157   24.3550  -74.3724 N.am      3 UNK        -0.4254 
     60 C         -82.0662   23.9902  -75.3427 C.2       2 UNK         0.5004 
     61 O         -82.2465   22.8215  -75.6890 O.2       2 UNK        -0.5226 
     62 CA        -82.8790   25.1067  -76.0285 C.3       2 UNK         0.0269 
     63 CB        -84.3714   24.9859  -75.6752 C.3       2 UNK        -0.1926 
     64 N         -82.4266   26.4625  -75.6960 N.am      2 UNK        -0.4687 
     65 C         -81.3310   27.0523  -76.1974 C.2       1 UNK         0.5165 
     66 O         -80.5800   26.5142  -77.0098 O.2       1 UNK        -0.5079 
     67 H67       -85.2634   29.9159  -76.0587 H         1 UNK         0.0900 
     68 H68       -84.3213   30.5535  -74.7094 H         1 UNK         0.0900 
     69 H69       -84.3723   31.4296  -76.2400 H         1 UNK         0.0900 
     70 H70       -82.3833   29.4711  -74.4257 H         1 UNK         0.2959 
     71 H71       -80.5205   28.9921  -76.5327 H         1 UNK         0.1079 
     72 H72       -79.1633   27.8612  -74.7400 H         1 UNK         0.0837 
     73 H73       -80.5159   27.9517  -73.6445 H         1 UNK         0.0837 
     74 H74       -77.5370   29.5928  -75.2215 H         1 UNK         0.0685 
     75 H75       -77.4070   31.1197  -74.3903 H         1 UNK         0.0685 
     76 H76       -76.4608   27.6745  -74.2180 H         1 UNK         0.1434 
     77 H77       -75.0085   27.8703  -70.1938 H         1 UNK         0.1329 
     78 H78       -77.3366   31.1002  -71.7899 H         1 UNK         0.1335 
     79 H79       -76.9408   30.8626  -69.3207 H         1 UNK         0.0680 
     80 H80       -75.8644   29.6365  -68.7050 H         1 UNK         0.0680 
     81 H81       -72.5548   30.6941  -68.7829 H         1 UNK         0.1032 
     82 H82       -73.4892   29.3985  -69.4483 H         1 UNK         0.1032 
     83 H83       -71.8724   31.5041  -70.9364 H         1 UNK         0.0461 
     84 H84       -70.3453   27.8735  -71.7968 H         1 UNK         0.3453 
     85 H85       -71.8032   28.4657  -72.5557 H         1 UNK         0.3453 
     86 H86       -74.1126   30.1034  -72.0438 H         1 UNK         0.2984 
     87 H87       -74.5385   30.0148  -74.2350 H         1 UNK         0.0554 
     88 H88       -75.0026   32.4363  -73.9031 H         1 UNK         0.0847 
     89 H89       -75.2063   31.9981  -75.5913 H         1 UNK         0.0847 
     90 H90       -73.7585   32.8614  -75.0701 H         1 UNK         0.0847 
     91 H91       -72.8566   30.9707  -76.4115 H         1 UNK         0.3141 
     92 H92       -72.3434   29.3427  -78.0134 H         1 UNK         0.0743 
     93 H93       -70.0521   28.2820  -76.2406 H         1 UNK         0.0784 
     94 H94       -69.9086   28.6904  -77.9499 H         1 UNK         0.0784 
     95 H95       -70.2361   29.9494  -76.7690 H         1 UNK         0.0784 
     96 H96       -72.5870   26.7738  -76.7599 H         1 UNK         0.3213 
     97 H97       -73.2545   25.1999  -79.8525 H         1 UNK         0.0855 
     98 H98       -71.1948   24.3553  -77.7351 H         1 UNK         0.0814 
     99 H99       -70.9080   24.4312  -79.4687 H         1 UNK         0.0814 
    100 H100      -72.0575   23.2696  -78.8247 H         1 UNK         0.0814 
    101 H101      -73.5142   24.7088  -76.9492 H         1 UNK         0.3105 
    102 H102      -75.3560   26.4447  -75.9537 H         1 UNK         0.0547 
    103 H103      -77.8197   26.1060  -75.7537 H         1 UNK         0.0837 
    104 H104      -77.8389   25.3148  -77.3243 H         1 UNK         0.0837 
    105 H105      -77.3996   27.0121  -77.1959 H         1 UNK         0.0837 
    106 H106      -76.6490   23.9898  -75.5112 H         1 UNK         0.3020 
    107 H107      -74.1199   22.1770  -74.0643 H         1 UNK         0.1245 
    108 H108      -73.7135   23.9208  -72.4000 H         1 UNK         0.0781 
    109 H109      -74.8329   22.7616  -71.7652 H         1 UNK         0.0781 
    110 H110      -74.5007   26.3104  -73.4422 H         1 UNK         0.0836 
    111 H111      -74.0243   26.3079  -71.7688 H         1 UNK         0.0836 
    112 H112      -76.9041   22.5005  -73.3887 H         1 UNK         0.3022 
    113 H113      -78.2561   20.7117  -76.0153 H         1 UNK         0.0747 
    114 H114      -78.9215   18.8620  -74.4971 H         1 UNK         0.0793 
    115 H115      -77.2422   18.6769  -74.9697 H         1 UNK         0.0793 
    116 H116      -77.6333   19.2888  -73.3687 H         1 UNK         0.0793 
    117 H117      -79.3459   21.1060  -73.4420 H         1 UNK         0.3047 
    118 H118      -80.9374   22.6729  -73.1892 H         1 UNK         0.0822 
    119 H119      -80.3624   24.6930  -71.8347 H         1 UNK         0.0807 
    120 H120      -79.0186   25.0612  -72.9163 H         1 UNK         0.0807 
    121 H121      -78.9829   23.6129  -71.9215 H         1 UNK         0.0807 
    122 H122      -81.1320   25.3390  -74.1719 H         1 UNK         0.2946 
    123 H123      -82.7690   24.9613  -77.1058 H         1 UNK         0.1144 
    124 H124      -84.7602   24.0036  -75.9476 H         1 UNK         0.0793 
    125 H125      -84.9671   25.7261  -76.2099 H         1 UNK         0.0793 
    126 H126      -84.5458   25.1203  -74.6070 H         1 UNK         0.0793 
    127 H127      -82.9958   26.9878  -75.0476 H         1 UNK         0.2896 
@<TRIPOS>BOND
     1    1    2 1    
     2    1   67 1    
     3    1   68 1    
     4    1   69 1    
     5    2    3 2    
     6    2    4 am   BACKBONE|DICT|INTERRES
     7    4    5 1    
     8    4   70 1    
     9    5    6 1    
    10    5   65 1    
    11    5   71 1    
    12    6    7 1    
    13    6   72 1    
    14    6   73 1    
    15    7    8 1    
    16    8    9 1    
    17    8   74 1    
    18    8   75 1    
    19    9   10 ar   
    20    9   14 ar   
    21   10   11 ar   
    22   10   76 1    
    23   11   12 ar   
    24   11   48 1    
    25   12   13 ar   
    26   12   77 1    
    27   13   14 ar   
    28   13   15 1    
    29   14   78 1    
    30   15   16 1    
    31   15   79 1    
    32   15   80 1    
    33   16   17 1    
    34   17   18 1    
    35   17   81 1    
    36   17   82 1    
    37   18   19 1    
    38   18   22 1    
    39   18   83 1    
    40   19   20 am   BACKBONE|DICT|INTERRES
    41   19   21 2    
    42   20   84 1    
    43   20   85 1    
    44   22   23 am   BACKBONE|DICT|INTERRES
    45   22   86 1    
    46   23   24 2    
    47   23   25 1    
    48   25   26 1    
    49   25   27 1    
    50   25   87 1    
    51   26   88 1    
    52   26   89 1    
    53   26   90 1    
    54   27   28 am   BACKBONE|DICT|INTERRES
    55   27   91 1    
    56   28   29 2    
    57   28   30 1    
    58   30   31 1    
    59   30   32 1    
    60   30   92 1    
    61   31   93 1    
    62   31   94 1    
    63   31   95 1    
    64   32   33 am   BACKBONE|DICT|INTERRES
    65   32   96 1    
    66   33   34 2    
    67   33   35 1    
    68   35   36 1    
    69   35   37 1    
    70   35   97 1    
    71   36   98 1    
    72   36   99 1    
    73   36  100 1    
    74   37   38 am   BACKBONE|DICT|INTERRES
    75   37  101 1    
    76   38   39 2    
    77   38   40 1    
    78   40   41 1    
    79   40   42 1    
    80   40  102 1    
    81   41  103 1    
    82   41  104 1    
    83   41  105 1    
    84   42   43 am   BACKBONE|DICT|INTERRES
    85   42  106 1    
    86   43   44 2    
    87   43   45 1    
    88   45   46 1    
    89   45   49 1    
    90   45  107 1    
    91   46   47 1    
    92   46  108 1    
    93   46  109 1    
    94   47   48 1    
    95   48  110 1    
    96   48  111 1    
    97   49   50 am   BACKBONE|DICT|INTERRES
    98   49  112 1    
    99   50   51 2    
   100   50   52 1    
   101   52   53 1    
   102   52   54 1    
   103   52  113 1    
   104   53  114 1    
   105   53  115 1    
   106   53  116 1    
   107   54   55 am   BACKBONE|DICT|INTERRES
   108   54  117 1    
   109   55   56 2    
   110   55   57 1    
   111   57   58 1    
   112   57   59 1    
   113   57  118 1    
   114   58  119 1    
   115   58  120 1    
   116   58  121 1    
   117   59   60 am   BACKBONE|DICT|INTERRES
   118   59  122 1    
   119   60   61 2    
   120   60   62 1    
   121   62   63 1    
   122   62   64 1    
   123   62  123 1    
   124   63  124 1    
   125   63  125 1    
   126   63  126 1    
   127   64   65 am   BACKBONE|DICT|INTERRES
   128   64  127 1    
   129   65   66 2    
@<TRIPOS>SUBSTRUCTURE
     1 UNK         1 GROUP             0       ****    0 ROOT    
