@<TRIPOS>MOLECULE
3R135
127   129    1
SMALL
USER_CHARGES


@<TRIPOS>ATOM
      1 CA        -82.6436   23.0043  -71.8182 C.3       0 UNK        -0.1998 
      2 C         -82.6156   24.3041  -72.6088 C.2       0 UNK         0.4909 
      3 O         -82.8237   24.2888  -73.8229 O.2       0 UNK        -0.5240 
      4 N         -82.3701   25.4301  -71.9281 N.am      1 UNK        -0.4739 
      5 CA        -82.2454   26.7599  -72.5319 C.3       1 UNK         0.0864 
      6 C6        -82.5227   27.8888  -71.5038 C.3       11 UNK        -0.0881 
      7 S7        -81.4350   27.8845  -70.0338 S.3       11 UNK        -0.2682 
      8 C8        -80.3659   29.3478  -70.3060 C.3       11 UNK         0.0289 
      9 C9        -78.9326   29.0484  -70.7538 C.ar      11 UNK        -0.0687 
     10 C10       -78.3092   27.8198  -70.4932 C.ar      11 UNK        -0.0823 
     11 C11       -76.9726   27.6080  -70.8410 C.ar      11 UNK        -0.0830 
     12 C12       -76.2502   28.6353  -71.4504 C.ar      11 UNK        -0.1021 
     13 C13       -76.8529   29.8642  -71.7242 C.ar      11 UNK        -0.0753 
     14 C14       -78.1932   30.0635  -71.3758 C.ar      11 UNK        -0.0933 
     15 C15       -76.0277   30.9875  -72.3396 C.3       11 UNK         0.0166 
     16 S16       -76.4125   31.3041  -74.0925 S.3       11 UNK        -0.2615 
     17 C17       -76.0315   29.7174  -74.9187 C.3       11 UNK        -0.0865 
     18 CA        -74.6667   29.5785  -75.6547 C.3       10 UNK         0.0862 
     19 C         -74.3103   30.6624  -76.7199 C.2       10 UNK         0.5551 
     20 N         -75.2793   31.4141  -77.2255 N.am      10 UNK        -0.7319 
     21 O         -73.1665   30.7763  -77.1558 O.2       10 UNK        -0.5018 
     22 N         -73.5742   29.1694  -74.7610 N.am      10 UNK        -0.4509 
     23 C         -72.7755   29.9607  -74.0332 C.2       10 UNK         0.4899 
     24 O         -72.8775   31.1864  -73.9775 O.2       10 UNK        -0.4839 
     25 CA        -71.6759   29.2801  -73.1932 C.3       9 UNK         0.0222 
     26 CB        -71.9956   29.3968  -71.6925 C.3       9 UNK        -0.1966 
     27 N         -71.4326   27.8689  -73.5144 N.am      9 UNK        -0.4218 
     28 C         -70.8235   27.4120  -74.6175 C.2       9 UNK         0.5020 
     29 O         -70.4305   28.1397  -75.5304 O.2       9 UNK        -0.5274 
     30 CA        -70.5898   25.8945  -74.7173 C.3       8 UNK         0.0270 
     31 CB        -71.0975   25.0887  -73.5011 C.3       8 UNK        -0.1976 
     32 N         -71.2476   25.3915  -75.9198 N.am      8 UNK        -0.4313 
     33 C         -70.6513   24.7454  -76.9299 C.2       8 UNK         0.5041 
     34 O         -69.4400   24.5222  -76.9743 O.2       8 UNK        -0.5577 
     35 CA        -71.5412   24.2196  -78.0759 C.3       7 UNK         0.0284 
     36 CB        -71.5114   22.6816  -78.1185 C.3       7 UNK        -0.1958 
     37 N         -72.9369   24.6547  -77.9791 N.am      7 UNK        -0.4454 
     38 C         -73.4058   25.8311  -78.4136 C.2       7 UNK         0.5089 
     39 O         -72.7229   26.6628  -79.0108 O.2       7 UNK        -0.5125 
     40 CA        -74.8842   26.1428  -78.1123 C.3       6 UNK         0.0408 
     41 CB        -75.7673   25.7727  -79.3135 C.3       6 UNK        -0.1791 
     42 N         -75.4209   25.4980  -76.9057 N.am      6 UNK        -0.4762 
     43 C         -74.9450   25.6311  -75.6567 C.2       6 UNK         0.5007 
     44 O         -73.9249   26.2699  -75.3915 O.2       6 UNK        -0.5032 
     45 CA        -75.7149   24.9401  -74.5126 C.3       5 UNK         0.0783 
     46 C46       -75.8151   25.8628  -73.2756 C.3       11 UNK        -0.0857 
     47 S47       -76.5976   25.0476  -71.8446 S.3       11 UNK        -0.2512 
     48 C48       -76.2981   26.2775  -70.5376 C.3       11 UNK         0.0225 
     49 N         -77.0434   24.5136  -74.9556 N.am      5 UNK        -0.4615 
     50 C         -77.4365   23.2476  -75.1310 C.2       4 UNK         0.5053 
     51 O         -76.6895   22.2761  -75.0138 O.2       4 UNK        -0.5105 
     52 CA        -78.9147   23.0184  -75.4944 C.3       4 UNK         0.0263 
     53 CB        -79.6977   22.5467  -74.2597 C.3       4 UNK        -0.1981 
     54 N         -79.5648   24.2110  -76.0452 N.am      4 UNK        -0.4224 
     55 C         -79.3448   24.6854  -77.2795 C.2       3 UNK         0.4895 
     56 O         -78.6030   24.1410  -78.0973 O.2       3 UNK        -0.5091 
     57 CA        -80.0412   26.0035  -77.6594 C.3       3 UNK         0.0250 
     58 CB        -81.4140   25.7226  -78.2908 C.3       3 UNK        -0.1996 
     59 N         -80.2031   26.9374  -76.5402 N.am      3 UNK        -0.4254 
     60 C         -79.1965   27.4966  -75.8527 C.2       2 UNK         0.5004 
     61 O         -78.0084   27.2530  -76.0564 O.2       2 UNK        -0.5226 
     62 CA        -79.5838   28.4678  -74.7254 C.3       2 UNK         0.0269 
     63 CB        -79.7967   29.8881  -75.2761 C.3       2 UNK        -0.1926 
     64 N         -80.7854   28.0640  -73.9930 N.am      2 UNK        -0.4687 
     65 C         -80.9004   26.9430  -73.2680 C.2       1 UNK         0.5165 
     66 O         -80.0092   26.0947  -73.1797 O.2       1 UNK        -0.5079 
     67 H67       -82.4753   23.1715  -70.7544 H         1 UNK         0.0900 
     68 H68       -83.6101   22.5151  -71.9353 H         1 UNK         0.0900 
     69 H69       -81.8723   22.3256  -72.1799 H         1 UNK         0.0900 
     70 H70       -82.1666   25.3874  -70.9396 H         1 UNK         0.2959 
     71 H71       -83.0182   26.8354  -73.3008 H         1 UNK         0.1079 
     72 H72       -83.5455   27.7827  -71.1389 H         1 UNK         0.0837 
     73 H73       -82.5051   28.8678  -71.9842 H         1 UNK         0.0837 
     74 H74       -80.8399   30.0293  -71.0131 H         1 UNK         0.0685 
     75 H75       -80.3071   29.8919  -69.3626 H         1 UNK         0.0685 
     76 H76       -78.8512   27.0224  -70.0054 H         1 UNK         0.1434 
     77 H77       -75.2135   28.4777  -71.7113 H         1 UNK         0.1329 
     78 H78       -78.6526   31.0234  -71.5687 H         1 UNK         0.1335 
     79 H79       -76.2039   31.9055  -71.7775 H         1 UNK         0.0680 
     80 H80       -74.9626   30.7789  -72.2395 H         1 UNK         0.0680 
     81 H81       -76.1515   28.9000  -74.2118 H         1 UNK         0.1032 
     82 H82       -76.8180   29.5553  -75.6528 H         1 UNK         0.1032 
     83 H83       -74.7862   28.6931  -76.2754 H         1 UNK         0.0461 
     84 H84       -76.2168   31.3576  -76.8611 H         1 UNK         0.3453 
     85 H85       -75.0542   32.0939  -77.9345 H         1 UNK         0.3453 
     86 H86       -73.3823   28.1747  -74.7679 H         1 UNK         0.2984 
     87 H87       -70.7507   29.8285  -73.3823 H         1 UNK         0.0554 
     88 H88       -72.1699   30.4353  -71.4070 H         1 UNK         0.0847 
     89 H89       -71.1697   29.0326  -71.0813 H         1 UNK         0.0847 
     90 H90       -72.8875   28.8319  -71.4222 H         1 UNK         0.0847 
     91 H91       -71.7242   27.1926  -72.8239 H         1 UNK         0.3141 
     92 H92       -69.5090   25.7559  -74.7850 H         1 UNK         0.0743 
     93 H93       -72.1765   25.1796  -73.3673 H         1 UNK         0.0784 
     94 H94       -70.8745   24.0282  -73.6214 H         1 UNK         0.0784 
     95 H95       -70.6108   25.4077  -72.5783 H         1 UNK         0.0784 
     96 H96       -72.2386   25.6068  -75.9870 H         1 UNK         0.3213 
     97 H97       -71.1166   24.5930  -79.0105 H         1 UNK         0.0855 
     98 H98       -71.9083   22.2439  -77.2016 H         1 UNK         0.0814 
     99 H99       -70.4919   22.3127  -78.2399 H         1 UNK         0.0814 
    100 H100      -72.0934   22.2958  -78.9557 H         1 UNK         0.0814 
    101 H101      -73.5783   24.0350  -77.5055 H         1 UNK         0.3105 
    102 H102      -74.9609   27.2206  -77.9681 H         1 UNK         0.0547 
    103 H103      -75.4023   26.2411  -80.2287 H         1 UNK         0.0837 
    104 H104      -75.7890   24.6955  -79.4831 H         1 UNK         0.0837 
    105 H105      -76.7938   26.1095  -79.1675 H         1 UNK         0.0837 
    106 H106      -76.2751   24.9703  -77.0239 H         1 UNK         0.3020 
    107 H107      -75.1154   24.0711  -74.2326 H         1 UNK         0.1245 
    108 H108      -76.4044   26.7459  -73.5233 H         1 UNK         0.0781 
    109 H109      -74.8290   26.2134  -72.9652 H         1 UNK         0.0781 
    110 H110      -75.2233   26.4134  -70.4072 H         1 UNK         0.0836 
    111 H111      -76.6695   25.8831  -69.5906 H         1 UNK         0.0836 
    112 H112      -77.7117   25.2605  -75.1009 H         1 UNK         0.3022 
    113 H113      -78.9505   22.2265  -76.2456 H         1 UNK         0.0747 
    114 H114      -80.7355   22.3257  -74.5101 H         1 UNK         0.0793 
    115 H115      -79.2633   21.6365  -73.8441 H         1 UNK         0.0793 
    116 H116      -79.6931   23.3003  -73.4706 H         1 UNK         0.0793 
    117 H117      -80.1693   24.7291  -75.4214 H         1 UNK         0.3047 
    118 H118      -79.4151   26.4954  -78.4070 H         1 UNK         0.0822 
    119 H119      -81.8781   26.6385  -78.6574 H         1 UNK         0.0807 
    120 H120      -82.0991   25.2588  -77.5796 H         1 UNK         0.0807 
    121 H121      -81.3209   25.0464  -79.1420 H         1 UNK         0.0807 
    122 H122      -81.1479   27.1909  -76.2904 H         1 UNK         0.2946 
    123 H123      -78.7522   28.4886  -74.0164 H         1 UNK         0.1144 
    124 H124      -80.6978   29.9549  -75.8867 H         1 UNK         0.0793 
    125 H125      -78.9649   30.2075  -75.9031 H         1 UNK         0.0793 
    126 H126      -79.8836   30.6136  -74.4668 H         1 UNK         0.0793 
    127 H127      -81.5617   28.7090  -74.0205 H         1 UNK         0.2896 
@<TRIPOS>BOND
     1    1    2 1    
     2    1   67 1    
     3    1   68 1    
     4    1   69 1    
     5    2    3 2    
     6    2    4 am   BACKBONE|DICT|INTERRES
     7    4    5 1    
     8    4   70 1    
     9    5    6 1    
    10    5   65 1    
    11    5   71 1    
    12    6    7 1    
    13    6   72 1    
    14    6   73 1    
    15    7    8 1    
    16    8    9 1    
    17    8   74 1    
    18    8   75 1    
    19    9   10 ar   
    20    9   14 ar   
    21   10   11 ar   
    22   10   76 1    
    23   11   12 ar   
    24   11   48 1    
    25   12   13 ar   
    26   12   77 1    
    27   13   14 ar   
    28   13   15 1    
    29   14   78 1    
    30   15   16 1    
    31   15   79 1    
    32   15   80 1    
    33   16   17 1    
    34   17   18 1    
    35   17   81 1    
    36   17   82 1    
    37   18   19 1    
    38   18   22 1    
    39   18   83 1    
    40   19   20 am   BACKBONE|DICT|INTERRES
    41   19   21 2    
    42   20   84 1    
    43   20   85 1    
    44   22   23 am   BACKBONE|DICT|INTERRES
    45   22   86 1    
    46   23   24 2    
    47   23   25 1    
    48   25   26 1    
    49   25   27 1    
    50   25   87 1    
    51   26   88 1    
    52   26   89 1    
    53   26   90 1    
    54   27   28 am   BACKBONE|DICT|INTERRES
    55   27   91 1    
    56   28   29 2    
    57   28   30 1    
    58   30   31 1    
    59   30   32 1    
    60   30   92 1    
    61   31   93 1    
    62   31   94 1    
    63   31   95 1    
    64   32   33 am   BACKBONE|DICT|INTERRES
    65   32   96 1    
    66   33   34 2    
    67   33   35 1    
    68   35   36 1    
    69   35   37 1    
    70   35   97 1    
    71   36   98 1    
    72   36   99 1    
    73   36  100 1    
    74   37   38 am   BACKBONE|DICT|INTERRES
    75   37  101 1    
    76   38   39 2    
    77   38   40 1    
    78   40   41 1    
    79   40   42 1    
    80   40  102 1    
    81   41  103 1    
    82   41  104 1    
    83   41  105 1    
    84   42   43 am   BACKBONE|DICT|INTERRES
    85   42  106 1    
    86   43   44 2    
    87   43   45 1    
    88   45   46 1    
    89   45   49 1    
    90   45  107 1    
    91   46   47 1    
    92   46  108 1    
    93   46  109 1    
    94   47   48 1    
    95   48  110 1    
    96   48  111 1    
    97   49   50 am   BACKBONE|DICT|INTERRES
    98   49  112 1    
    99   50   51 2    
   100   50   52 1    
   101   52   53 1    
   102   52   54 1    
   103   52  113 1    
   104   53  114 1    
   105   53  115 1    
   106   53  116 1    
   107   54   55 am   BACKBONE|DICT|INTERRES
   108   54  117 1    
   109   55   56 2    
   110   55   57 1    
   111   57   58 1    
   112   57   59 1    
   113   57  118 1    
   114   58  119 1    
   115   58  120 1    
   116   58  121 1    
   117   59   60 am   BACKBONE|DICT|INTERRES
   118   59  122 1    
   119   60   61 2    
   120   60   62 1    
   121   62   63 1    
   122   62   64 1    
   123   62  123 1    
   124   63  124 1    
   125   63  125 1    
   126   63  126 1    
   127   64   65 am   BACKBONE|DICT|INTERRES
   128   64  127 1    
   129   65   66 2    
@<TRIPOS>SUBSTRUCTURE
     1 UNK         1 GROUP             0       ****    0 ROOT    
