@<TRIPOS>MOLECULE
3R135
127   129    1
SMALL
USER_CHARGES


@<TRIPOS>ATOM
      1 CA        -85.9555   30.0697  -71.8372 C.3       0 UNK        -0.1998 
      2 C         -84.6440   29.6860  -72.5059 C.2       0 UNK         0.4909 
      3 O         -84.2169   30.3587  -73.4446 O.2       0 UNK        -0.5240 
      4 N         -84.0004   28.6131  -72.0255 N.am      1 UNK        -0.4739 
      5 CA        -82.7455   28.0741  -72.5641 C.3       1 UNK         0.0864 
      6 C6        -82.1043   27.0812  -71.5579 C.3       11 UNK        -0.0881 
      7 S7        -80.5101   26.3772  -72.0946 S.3       11 UNK        -0.2682 
      8 C8        -79.3313   27.6000  -71.4538 C.3       11 UNK         0.0289 
      9 C9        -77.9462   27.3895  -72.0480 C.ar      11 UNK        -0.0687 
     10 C10       -77.1002   26.4011  -71.5344 C.ar      11 UNK        -0.0823 
     11 C11       -75.8124   26.2285  -72.0522 C.ar      11 UNK        -0.0830 
     12 C12       -75.3728   27.0593  -73.0873 C.ar      11 UNK        -0.1021 
     13 C13       -76.2122   28.0417  -73.6188 C.ar      11 UNK        -0.0753 
     14 C14       -77.5019   28.1958  -73.1009 C.ar      11 UNK        -0.0933 
     15 C15       -75.7206   28.9394  -74.7476 C.3       11 UNK         0.0166 
     16 S16       -75.5613   30.6800  -74.2340 S.3       11 UNK        -0.2615 
     17 C17       -74.2652   30.6049  -72.9484 C.3       11 UNK        -0.0865 
     18 CA        -72.9242   31.2331  -73.4103 C.3       10 UNK         0.0862 
     19 C         -71.9498   31.4150  -72.2071 C.2       10 UNK         0.5551 
     20 N         -70.7676   30.8098  -72.1928 N.am      10 UNK        -0.7319 
     21 O         -72.2749   32.1318  -71.2637 O.2       10 UNK        -0.5018 
     22 N         -72.3525   30.5063  -74.5549 N.am      10 UNK        -0.4509 
     23 C         -71.4523   31.0068  -75.4103 C.2       10 UNK         0.4899 
     24 O         -71.0773   32.1805  -75.3975 O.2       10 UNK        -0.4839 
     25 CA        -70.8678   30.0208  -76.4450 C.3       9 UNK         0.0222 
     26 CB        -69.5129   30.4929  -77.0134 C.3       9 UNK        -0.1966 
     27 N         -70.7616   28.6362  -75.9585 N.am      9 UNK        -0.4218 
     28 C         -70.0972   28.2066  -74.8702 C.2       9 UNK         0.5020 
     29 O         -69.5021   28.9567  -74.0956 O.2       9 UNK        -0.5274 
     30 CA        -70.1266   26.6984  -74.5519 C.3       8 UNK         0.0270 
     31 CB        -71.0503   26.4257  -73.3525 C.3       8 UNK        -0.1976 
     32 N         -70.5535   25.8663  -75.6780 N.am      8 UNK        -0.4313 
     33 C         -69.8245   25.6200  -76.7748 C.2       8 UNK         0.5041 
     34 O         -68.6619   25.9973  -76.9238 O.2       8 UNK        -0.5577 
     35 CA        -70.5180   24.8429  -77.9090 C.3       7 UNK         0.0284 
     36 CB        -70.1193   23.3590  -77.8646 C.3       7 UNK        -0.1958 
     37 N         -71.9829   24.9451  -77.9049 N.am      7 UNK        -0.4454 
     38 C         -72.6980   26.0681  -78.0483 C.2       7 UNK         0.5089 
     39 O         -72.1965   27.1890  -78.1349 O.2       7 UNK        -0.5125 
     40 CA        -74.2299   25.9267  -78.0467 C.3       6 UNK         0.0408 
     41 CB        -74.7351   25.2382  -79.3294 C.3       6 UNK        -0.1791 
     42 N         -74.7737   25.2888  -76.8396 N.am      6 UNK        -0.4762 
     43 C         -74.6199   24.0295  -76.3968 C.2       6 UNK         0.5007 
     44 O         -73.9406   23.1751  -76.9673 O.2       6 UNK        -0.5032 
     45 CA        -75.3318   23.6752  -75.0752 C.3       5 UNK         0.0783 
     46 C46       -74.3364   23.7996  -73.8925 C.3       11 UNK        -0.0857 
     47 S47       -75.1087   23.5402  -72.2577 S.3       11 UNK        -0.2512 
     48 C48       -74.8868   25.1688  -71.4680 C.3       11 UNK         0.0225 
     49 N         -76.5529   24.4666  -74.8767 N.am      5 UNK        -0.4615 
     50 C         -77.6780   24.3142  -75.5857 C.2       4 UNK         0.5053 
     51 O         -77.8089   23.5097  -76.5110 O.2       4 UNK        -0.5105 
     52 CA        -78.8360   25.2533  -75.2195 C.3       4 UNK         0.0263 
     53 CB        -78.8166   26.5014  -76.1157 C.3       4 UNK        -0.1981 
     54 N         -80.1461   24.6075  -75.3235 N.am      4 UNK        -0.4224 
     55 C         -80.5589   23.5726  -74.5787 C.2       3 UNK         0.4895 
     56 O         -79.8711   23.0376  -73.7067 O.2       3 UNK        -0.5091 
     57 CA        -81.9961   23.0818  -74.8321 C.3       3 UNK         0.0250 
     58 CB        -82.4289   21.9760  -73.8500 C.3       3 UNK        -0.1996 
     59 N         -82.9415   24.1953  -74.7320 N.am      3 UNK        -0.4254 
     60 C         -83.4284   24.8954  -75.7648 C.2       2 UNK         0.5004 
     61 O         -83.1402   24.6704  -76.9405 O.2       2 UNK        -0.5226 
     62 CA        -84.3786   26.0589  -75.4274 C.3       2 UNK         0.0269 
     63 CB        -85.8354   25.5709  -75.3793 C.3       2 UNK        -0.1926 
     64 N         -84.0476   26.7289  -74.1647 N.am      2 UNK        -0.4687 
     65 C         -82.9427   27.4660  -73.9718 C.2       1 UNK         0.5165 
     66 O         -82.1148   27.6902  -74.8557 O.2       1 UNK        -0.5079 
     67 H67       -85.8907   31.0811  -71.4370 H         1 UNK         0.0900 
     68 H68       -86.2088   29.3969  -71.0182 H         1 UNK         0.0900 
     69 H69       -86.7682   30.0415  -72.5626 H         1 UNK         0.0900 
     70 H70       -84.3982   28.1108  -71.2441 H         1 UNK         0.2959 
     71 H71       -82.0569   28.9138  -72.6834 H         1 UNK         0.1079 
     72 H72       -81.9592   27.5705  -70.5932 H         1 UNK         0.0837 
     73 H73       -82.7831   26.2480  -71.3671 H         1 UNK         0.0837 
     74 H74       -79.2866   27.5259  -70.3662 H         1 UNK         0.0685 
     75 H75       -79.6894   28.6050  -71.6819 H         1 UNK         0.0685 
     76 H76       -77.4446   25.7703  -70.7260 H         1 UNK         0.1434 
     77 H77       -74.3719   26.9495  -73.4762 H         1 UNK         0.1329 
     78 H78       -78.1516   28.9591  -73.5070 H         1 UNK         0.1335 
     79 H79       -76.4255   28.8882  -75.5780 H         1 UNK         0.0680 
     80 H80       -74.7631   28.5925  -75.1388 H         1 UNK         0.0680 
     81 H81       -74.6566   31.1380  -72.0797 H         1 UNK         0.1032 
     82 H82       -74.1108   29.5778  -72.6163 H         1 UNK         0.1032 
     83 H83       -73.1473   32.2457  -73.7524 H         1 UNK         0.0461 
     84 H84       -70.4594   30.2248  -72.9630 H         1 UNK         0.3453 
     85 H85       -70.1579   30.9505  -71.4036 H         1 UNK         0.3453 
     86 H86       -72.5981   29.5326  -74.6344 H         1 UNK         0.2984 
     87 H87       -71.5801   29.9952  -77.2709 H         1 UNK         0.0554 
     88 H88       -69.1305   29.7942  -77.7575 H         1 UNK         0.0847 
     89 H89       -68.7605   30.5939  -76.2304 H         1 UNK         0.0847 
     90 H90       -69.6072   31.4636  -77.5017 H         1 UNK         0.0847 
     91 H91       -71.2175   27.9471  -76.5494 H         1 UNK         0.3141 
     92 H92       -69.1113   26.4050  -74.2766 H         1 UNK         0.0743 
     93 H93       -70.7281   26.9894  -72.4756 H         1 UNK         0.0784 
     94 H94       -72.0789   26.7151  -73.5629 H         1 UNK         0.0784 
     95 H95       -71.0451   25.3712  -73.0758 H         1 UNK         0.0784 
     96 H96       -71.4904   25.4939  -75.6457 H         1 UNK         0.3213 
     97 H97       -70.1634   25.2665  -78.8510 H         1 UNK         0.0855 
     98 H98       -70.4791   22.8716  -76.9575 H         1 UNK         0.0814 
     99 H99       -69.0346   23.2441  -77.8892 H         1 UNK         0.0814 
    100 H100      -70.5200   22.8145  -78.7198 H         1 UNK         0.0814 
    101 H101      -72.5088   24.0846  -77.7672 H         1 UNK         0.3105 
    102 H102      -74.6349   26.9402  -78.0476 H         1 UNK         0.0547 
    103 H103      -74.3818   24.2104  -79.4146 H         1 UNK         0.0837 
    104 H104      -75.8244   25.2191  -79.3633 H         1 UNK         0.0837 
    105 H105      -74.3930   25.7717  -80.2172 H         1 UNK         0.0837 
    106 H106      -75.3509   25.8903  -76.2697 H         1 UNK         0.3020 
    107 H107      -75.6331   22.6275  -75.1501 H         1 UNK         0.1245 
    108 H108      -73.8310   24.7650  -73.9049 H         1 UNK         0.0781 
    109 H109      -73.5434   23.0567  -73.9988 H         1 UNK         0.0781 
    110 H110      -75.0807   25.0654  -70.3992 H         1 UNK         0.0836 
    111 H111      -73.8442   25.4801  -71.5515 H         1 UNK         0.0836 
    112 H112      -76.5377   25.1219  -74.1061 H         1 UNK         0.3022 
    113 H113      -78.7023   25.5672  -74.1841 H         1 UNK         0.0747 
    114 H114      -77.8478   26.9987  -76.0745 H         1 UNK         0.0793 
    115 H115      -79.5643   27.2277  -75.7966 H         1 UNK         0.0793 
    116 H116      -79.0104   26.2519  -77.1597 H         1 UNK         0.0793 
    117 H117      -80.7798   24.9765  -76.0185 H         1 UNK         0.3047 
    118 H118      -82.0182   22.6580  -75.8385 H         1 UNK         0.0822 
    119 H119      -81.7694   21.1100  -73.9206 H         1 UNK         0.0807 
    120 H120      -83.4398   21.6291  -74.0649 H         1 UNK         0.0807 
    121 H121      -82.4055   22.3217  -72.8157 H         1 UNK         0.0807 
    122 H122      -83.1948   24.4868  -73.7990 H         1 UNK         0.2946 
    123 H123      -84.2902   26.7927  -76.2324 H         1 UNK         0.1144 
    124 H124      -86.1156   25.0879  -76.3167 H         1 UNK         0.0793 
    125 H125      -86.5267   26.3997  -75.2253 H         1 UNK         0.0793 
    126 H126      -85.9944   24.8465  -74.5795 H         1 UNK         0.0793 
    127 H127      -84.6973   26.6203  -73.3994 H         1 UNK         0.2896 
@<TRIPOS>BOND
     1    1    2 1    
     2    1   67 1    
     3    1   68 1    
     4    1   69 1    
     5    2    3 2    
     6    2    4 am   BACKBONE|DICT|INTERRES
     7    4    5 1    
     8    4   70 1    
     9    5    6 1    
    10    5   65 1    
    11    5   71 1    
    12    6    7 1    
    13    6   72 1    
    14    6   73 1    
    15    7    8 1    
    16    8    9 1    
    17    8   74 1    
    18    8   75 1    
    19    9   10 ar   
    20    9   14 ar   
    21   10   11 ar   
    22   10   76 1    
    23   11   12 ar   
    24   11   48 1    
    25   12   13 ar   
    26   12   77 1    
    27   13   14 ar   
    28   13   15 1    
    29   14   78 1    
    30   15   16 1    
    31   15   79 1    
    32   15   80 1    
    33   16   17 1    
    34   17   18 1    
    35   17   81 1    
    36   17   82 1    
    37   18   19 1    
    38   18   22 1    
    39   18   83 1    
    40   19   20 am   BACKBONE|DICT|INTERRES
    41   19   21 2    
    42   20   84 1    
    43   20   85 1    
    44   22   23 am   BACKBONE|DICT|INTERRES
    45   22   86 1    
    46   23   24 2    
    47   23   25 1    
    48   25   26 1    
    49   25   27 1    
    50   25   87 1    
    51   26   88 1    
    52   26   89 1    
    53   26   90 1    
    54   27   28 am   BACKBONE|DICT|INTERRES
    55   27   91 1    
    56   28   29 2    
    57   28   30 1    
    58   30   31 1    
    59   30   32 1    
    60   30   92 1    
    61   31   93 1    
    62   31   94 1    
    63   31   95 1    
    64   32   33 am   BACKBONE|DICT|INTERRES
    65   32   96 1    
    66   33   34 2    
    67   33   35 1    
    68   35   36 1    
    69   35   37 1    
    70   35   97 1    
    71   36   98 1    
    72   36   99 1    
    73   36  100 1    
    74   37   38 am   BACKBONE|DICT|INTERRES
    75   37  101 1    
    76   38   39 2    
    77   38   40 1    
    78   40   41 1    
    79   40   42 1    
    80   40  102 1    
    81   41  103 1    
    82   41  104 1    
    83   41  105 1    
    84   42   43 am   BACKBONE|DICT|INTERRES
    85   42  106 1    
    86   43   44 2    
    87   43   45 1    
    88   45   46 1    
    89   45   49 1    
    90   45  107 1    
    91   46   47 1    
    92   46  108 1    
    93   46  109 1    
    94   47   48 1    
    95   48  110 1    
    96   48  111 1    
    97   49   50 am   BACKBONE|DICT|INTERRES
    98   49  112 1    
    99   50   51 2    
   100   50   52 1    
   101   52   53 1    
   102   52   54 1    
   103   52  113 1    
   104   53  114 1    
   105   53  115 1    
   106   53  116 1    
   107   54   55 am   BACKBONE|DICT|INTERRES
   108   54  117 1    
   109   55   56 2    
   110   55   57 1    
   111   57   58 1    
   112   57   59 1    
   113   57  118 1    
   114   58  119 1    
   115   58  120 1    
   116   58  121 1    
   117   59   60 am   BACKBONE|DICT|INTERRES
   118   59  122 1    
   119   60   61 2    
   120   60   62 1    
   121   62   63 1    
   122   62   64 1    
   123   62  123 1    
   124   63  124 1    
   125   63  125 1    
   126   63  126 1    
   127   64   65 am   BACKBONE|DICT|INTERRES
   128   64  127 1    
   129   65   66 2    
@<TRIPOS>SUBSTRUCTURE
     1 UNK         1 GROUP             0       ****    0 ROOT    
