@<TRIPOS>MOLECULE
3R135
127   129    1
SMALL
USER_CHARGES


@<TRIPOS>ATOM
      1 CA        -78.7609   29.4351  -74.9896 C.3       0 UNK        -0.1998 
      2 C         -80.1360   28.9019  -74.6163 C.2       0 UNK         0.4909 
      3 O         -81.0490   28.9338  -75.4413 O.2       0 UNK        -0.5240 
      4 N         -80.2775   28.4066  -73.3793 N.am      1 UNK        -0.4739 
      5 CA        -81.5025   27.8424  -72.7890 C.3       1 UNK         0.0864 
      6 C6        -82.6167   28.8913  -72.5279 C.3       11 UNK        -0.0881 
      7 S7        -82.0749   30.3927  -71.6292 S.3       11 UNK        -0.2682 
      8 C8        -81.3075   29.7526  -70.0983 C.3       11 UNK         0.0289 
      9 C9        -79.8291   29.4198  -70.2776 C.ar      11 UNK        -0.0687 
     10 C10       -79.3657   28.1118  -70.0897 C.ar      11 UNK        -0.0823 
     11 C11       -78.0208   27.8009  -70.3036 C.ar      11 UNK        -0.0830 
     12 C12       -77.1241   28.8211  -70.6187 C.ar      11 UNK        -0.1021 
     13 C13       -77.5675   30.1283  -70.8291 C.ar      11 UNK        -0.0753 
     14 C14       -78.9233   30.4216  -70.6483 C.ar      11 UNK        -0.0933 
     15 C15       -76.5905   31.2157  -71.2663 C.3       11 UNK         0.0166 
     16 S16       -75.7721   30.8225  -72.8541 S.3       11 UNK        -0.2615 
     17 C17       -74.3640   29.7912  -72.3121 C.3       11 UNK        -0.0865 
     18 CA        -73.0399   30.1737  -73.0144 C.3       10 UNK         0.0862 
     19 C         -71.8254   29.5706  -72.2585 C.2       10 UNK         0.5551 
     20 N         -71.0118   30.3996  -71.6196 N.am      10 UNK        -0.7319 
     21 O         -71.6495   28.3554  -72.2075 O.2       10 UNK        -0.5018 
     22 N         -73.0415   29.7405  -74.4161 N.am      10 UNK        -0.4509 
     23 C         -72.1793   30.1803  -75.3404 C.2       10 UNK         0.4899 
     24 O         -71.3963   31.1154  -75.1615 O.2       10 UNK        -0.4839 
     25 CA        -72.1914   29.4224  -76.6793 C.3       9 UNK         0.0222 
     26 CB        -71.0971   29.8919  -77.6610 C.3       9 UNK        -0.1966 
     27 N         -72.1328   27.9706  -76.4794 N.am      9 UNK        -0.4218 
     28 C         -71.1658   27.2551  -75.8815 C.2       9 UNK         0.5020 
     29 O         -70.1102   27.7328  -75.4635 O.2       9 UNK        -0.5274 
     30 CA        -71.4117   25.7419  -75.7119 C.3       8 UNK         0.0270 
     31 CB        -71.7847   25.4223  -74.2550 C.3       8 UNK        -0.1976 
     32 N         -72.4511   25.2127  -76.5998 N.am      8 UNK        -0.4313 
     33 C         -72.3232   25.0844  -77.9280 C.2       8 UNK         0.5041 
     34 O         -71.2758   25.2986  -78.5396 O.2       8 UNK        -0.5577 
     35 CA        -73.5862   24.6922  -78.7121 C.3       7 UNK         0.0284 
     36 CB        -73.7556   23.1649  -78.7333 C.3       7 UNK        -0.1958 
     37 N         -74.8039   25.3254  -78.1917 N.am      7 UNK        -0.4454 
     38 C         -75.0385   26.6466  -78.1916 C.2       7 UNK         0.5089 
     39 O         -74.2652   27.4773  -78.6656 O.2       7 UNK        -0.5125 
     40 CA        -76.3250   27.1353  -77.5059 C.3       6 UNK         0.0408 
     41 CB        -77.5439   26.9493  -78.4222 C.3       6 UNK        -0.1791 
     42 N         -76.5651   26.4703  -76.2263 N.am      6 UNK        -0.4762 
     43 C         -75.7980   26.5967  -75.1325 C.2       6 UNK         0.5007 
     44 O         -74.8199   27.3427  -75.0557 O.2       6 UNK        -0.5032 
     45 CA        -76.1920   25.7157  -73.9292 C.3       5 UNK         0.0783 
     46 C46       -77.3262   26.4037  -73.1317 C.3       11 UNK        -0.0857 
     47 S47       -78.0031   25.4187  -71.7446 S.3       11 UNK        -0.2512 
     48 C48       -77.5300   26.3605  -70.2506 C.3       11 UNK         0.0225 
     49 N         -76.5510   24.3619  -74.3636 N.am      5 UNK        -0.4615 
     50 C         -75.7064   23.4852  -74.9225 C.2       4 UNK         0.5053 
     51 O         -74.5133   23.7135  -75.1202 O.2       4 UNK        -0.5105 
     52 CA        -76.3073   22.1427  -75.3725 C.3       4 UNK         0.0263 
     53 CB        -76.4514   21.1868  -74.1777 C.3       4 UNK        -0.1981 
     54 N         -77.6041   22.2988  -76.0384 N.am      4 UNK        -0.4224 
     55 C         -77.7795   22.9223  -77.2128 C.2       3 UNK         0.4895 
     56 O         -76.8608   23.3915  -77.8812 O.2       3 UNK        -0.5091 
     57 CA        -79.2259   23.0987  -77.7072 C.3       3 UNK         0.0250 
     58 CB        -79.6809   21.8593  -78.4938 C.3       3 UNK        -0.1996 
     59 N         -80.1933   23.3906  -76.6429 N.am      3 UNK        -0.4254 
     60 C         -80.1077   24.4199  -75.7891 C.2       2 UNK         0.5004 
     61 O         -79.1734   25.2279  -75.7792 O.2       2 UNK        -0.5226 
     62 CA        -81.2311   24.5412  -74.7523 C.3       2 UNK         0.0269 
     63 CB        -81.2069   23.3656  -73.7574 C.3       2 UNK        -0.1926 
     64 N         -81.0430   25.7869  -74.0208 N.am      2 UNK        -0.4687 
     65 C         -81.9981   26.5751  -73.5197 C.2       1 UNK         0.5165 
     66 O         -83.2021   26.3220  -73.5945 O.2       1 UNK        -0.5079 
     67 H67       -78.8255   30.4897  -75.2554 H         1 UNK         0.0900 
     68 H68       -78.3668   28.8895  -75.8462 H         1 UNK         0.0900 
     69 H69       -78.0500   29.3371  -74.1699 H         1 UNK         0.0900 
     70 H70       -79.4948   28.4582  -72.7410 H         1 UNK         0.2959 
     71 H71       -81.2152   27.4488  -71.8184 H         1 UNK         0.1079 
     72 H72       -83.0527   29.2131  -73.4752 H         1 UNK         0.0837 
     73 H73       -83.4335   28.4424  -71.9597 H         1 UNK         0.0837 
     74 H74       -81.3965   30.5147  -69.3230 H         1 UNK         0.0685 
     75 H75       -81.8702   28.8887  -69.7414 H         1 UNK         0.0685 
     76 H76       -80.0546   27.3241  -69.8165 H         1 UNK         0.1434 
     77 H77       -76.0829   28.5749  -70.7486 H         1 UNK         0.1329 
     78 H78       -79.2826   31.4293  -70.8075 H         1 UNK         0.1335 
     79 H79       -77.1167   32.1635  -71.3893 H         1 UNK         0.0680 
     80 H80       -75.8495   31.3840  -70.4840 H         1 UNK         0.0680 
     81 H81       -74.5987   28.7408  -72.4943 H         1 UNK         0.1032 
     82 H82       -74.2512   29.8965  -71.2315 H         1 UNK         0.1032 
     83 H83       -72.9503   31.2622  -72.9952 H         1 UNK         0.0461 
     84 H84       -71.1520   31.3975  -71.6557 H         1 UNK         0.3453 
     85 H85       -70.2286   30.0217  -71.1099 H         1 UNK         0.3453 
     86 H86       -73.6332   28.9463  -74.6391 H         1 UNK         0.2984 
     87 H87       -73.1584   29.6281  -77.1405 H         1 UNK         0.0554 
     88 H88       -71.1513   29.3459  -78.6028 H         1 UNK         0.0847 
     89 H89       -70.0959   29.7557  -77.2510 H         1 UNK         0.0847 
     90 H90       -71.2109   30.9514  -77.8932 H         1 UNK         0.0847 
     91 H91       -72.9581   27.4686  -76.7814 H         1 UNK         0.3141 
     92 H92       -70.4753   25.2307  -75.9446 H         1 UNK         0.0743 
     93 H93       -72.7168   25.9070  -73.9626 H         1 UNK         0.0784 
     94 H94       -71.9002   24.3496  -74.0990 H         1 UNK         0.0784 
     95 H95       -71.0114   25.7698  -73.5684 H         1 UNK         0.0784 
     96 H96       -73.3231   24.9253  -76.1628 H         1 UNK         0.3213 
     97 H97       -73.4523   25.0331  -79.7409 H         1 UNK         0.0855 
     98 H98       -73.9388   22.7651  -77.7355 H         1 UNK         0.0814 
     99 H99       -72.8607   22.6773  -79.1222 H         1 UNK         0.0814 
    100 H100      -74.5883   22.8677  -79.3710 H         1 UNK         0.0814 
    101 H101      -75.5285   24.6990  -77.8463 H         1 UNK         0.3105 
    102 H102      -76.2120   28.2031  -77.3067 H         1 UNK         0.0547 
    103 H103      -77.4110   27.4885  -79.3608 H         1 UNK         0.0837 
    104 H104      -77.7081   25.9007  -78.6697 H         1 UNK         0.0837 
    105 H105      -78.4539   27.3273  -77.9557 H         1 UNK         0.0837 
    106 H106      -77.3812   25.8650  -76.1710 H         1 UNK         0.3020 
    107 H107      -75.3156   25.6339  -73.2823 H         1 UNK         0.1245 
    108 H108      -78.1629   26.6260  -73.7923 H         1 UNK         0.0781 
    109 H109      -76.9739   27.3689  -72.7747 H         1 UNK         0.0781 
    110 H110      -76.4456   26.3230  -70.1352 H         1 UNK         0.0836 
    111 H111      -77.9463   25.8654  -69.3722 H         1 UNK         0.0836 
    112 H112      -77.5245   24.1128  -74.2720 H         1 UNK         0.3022 
    113 H113      -75.6148   21.6932  -76.0872 H         1 UNK         0.0747 
    114 H114      -76.7984   20.2036  -74.4961 H         1 UNK         0.0793 
    115 H115      -75.4928   21.0435  -73.6767 H         1 UNK         0.0793 
    116 H116      -77.1535   21.5671  -73.4345 H         1 UNK         0.0793 
    117 H117      -78.4164   21.9412  -75.5578 H         1 UNK         0.3047 
    118 H118      -79.2311   23.9520  -78.3882 H         1 UNK         0.0822 
    119 H119      -80.6604   22.0136  -78.9469 H         1 UNK         0.0807 
    120 H120      -79.7392   20.9744  -77.8588 H         1 UNK         0.0807 
    121 H121      -78.9848   21.6342  -79.3034 H         1 UNK         0.0807 
    122 H122      -80.9891   22.7719  -76.5783 H         1 UNK         0.2946 
    123 H123      -82.1851   24.5647  -75.2843 H         1 UNK         0.1144 
    124 H124      -81.3697   22.4118  -74.2602 H         1 UNK         0.0793 
    125 H125      -81.9914   23.4681  -73.0074 H         1 UNK         0.0793 
    126 H126      -80.2528   23.3028  -73.2321 H         1 UNK         0.0793 
    127 H127      -80.0857   26.1124  -74.0008 H         1 UNK         0.2896 
@<TRIPOS>BOND
     1    1    2 1    
     2    1   67 1    
     3    1   68 1    
     4    1   69 1    
     5    2    3 2    
     6    2    4 am   BACKBONE|DICT|INTERRES
     7    4    5 1    
     8    4   70 1    
     9    5    6 1    
    10    5   65 1    
    11    5   71 1    
    12    6    7 1    
    13    6   72 1    
    14    6   73 1    
    15    7    8 1    
    16    8    9 1    
    17    8   74 1    
    18    8   75 1    
    19    9   10 ar   
    20    9   14 ar   
    21   10   11 ar   
    22   10   76 1    
    23   11   12 ar   
    24   11   48 1    
    25   12   13 ar   
    26   12   77 1    
    27   13   14 ar   
    28   13   15 1    
    29   14   78 1    
    30   15   16 1    
    31   15   79 1    
    32   15   80 1    
    33   16   17 1    
    34   17   18 1    
    35   17   81 1    
    36   17   82 1    
    37   18   19 1    
    38   18   22 1    
    39   18   83 1    
    40   19   20 am   BACKBONE|DICT|INTERRES
    41   19   21 2    
    42   20   84 1    
    43   20   85 1    
    44   22   23 am   BACKBONE|DICT|INTERRES
    45   22   86 1    
    46   23   24 2    
    47   23   25 1    
    48   25   26 1    
    49   25   27 1    
    50   25   87 1    
    51   26   88 1    
    52   26   89 1    
    53   26   90 1    
    54   27   28 am   BACKBONE|DICT|INTERRES
    55   27   91 1    
    56   28   29 2    
    57   28   30 1    
    58   30   31 1    
    59   30   32 1    
    60   30   92 1    
    61   31   93 1    
    62   31   94 1    
    63   31   95 1    
    64   32   33 am   BACKBONE|DICT|INTERRES
    65   32   96 1    
    66   33   34 2    
    67   33   35 1    
    68   35   36 1    
    69   35   37 1    
    70   35   97 1    
    71   36   98 1    
    72   36   99 1    
    73   36  100 1    
    74   37   38 am   BACKBONE|DICT|INTERRES
    75   37  101 1    
    76   38   39 2    
    77   38   40 1    
    78   40   41 1    
    79   40   42 1    
    80   40  102 1    
    81   41  103 1    
    82   41  104 1    
    83   41  105 1    
    84   42   43 am   BACKBONE|DICT|INTERRES
    85   42  106 1    
    86   43   44 2    
    87   43   45 1    
    88   45   46 1    
    89   45   49 1    
    90   45  107 1    
    91   46   47 1    
    92   46  108 1    
    93   46  109 1    
    94   47   48 1    
    95   48  110 1    
    96   48  111 1    
    97   49   50 am   BACKBONE|DICT|INTERRES
    98   49  112 1    
    99   50   51 2    
   100   50   52 1    
   101   52   53 1    
   102   52   54 1    
   103   52  113 1    
   104   53  114 1    
   105   53  115 1    
   106   53  116 1    
   107   54   55 am   BACKBONE|DICT|INTERRES
   108   54  117 1    
   109   55   56 2    
   110   55   57 1    
   111   57   58 1    
   112   57   59 1    
   113   57  118 1    
   114   58  119 1    
   115   58  120 1    
   116   58  121 1    
   117   59   60 am   BACKBONE|DICT|INTERRES
   118   59  122 1    
   119   60   61 2    
   120   60   62 1    
   121   62   63 1    
   122   62   64 1    
   123   62  123 1    
   124   63  124 1    
   125   63  125 1    
   126   63  126 1    
   127   64   65 am   BACKBONE|DICT|INTERRES
   128   64  127 1    
   129   65   66 2    
@<TRIPOS>SUBSTRUCTURE
     1 UNK         1 GROUP             0       ****    0 ROOT    
