@<TRIPOS>MOLECULE
3R135
127   129    1
SMALL
USER_CHARGES


@<TRIPOS>ATOM
      1 CA        -80.5334   22.7771  -72.4798 C.3       0 UNK        -0.1998 
      2 C         -80.6796   24.2191  -72.9390 C.2       0 UNK         0.4909 
      3 O         -79.9397   24.6456  -73.8282 O.2       0 UNK        -0.5240 
      4 N         -81.6294   24.9563  -72.3410 N.am      1 UNK        -0.4739 
      5 CA        -81.9198   26.3803  -72.5599 C.3       1 UNK         0.0864 
      6 C6        -80.8205   27.2846  -71.9406 C.3       11 UNK        -0.0881 
      7 S7        -81.3322   29.0259  -71.7176 S.3       11 UNK        -0.2682 
      8 C8        -80.2352   29.5746  -70.3632 C.3       11 UNK         0.0289 
      9 C9        -78.7707   29.4024  -70.7369 C.ar      11 UNK        -0.0687 
     10 C10       -78.1048   28.2218  -70.3988 C.ar      11 UNK        -0.0823 
     11 C11       -76.8186   27.9737  -70.8778 C.ar      11 UNK        -0.0830 
     12 C12       -76.1640   28.9524  -71.6308 C.ar      11 UNK        -0.1021 
     13 C13       -76.8023   30.1563  -71.9420 C.ar      11 UNK        -0.0753 
     14 C14       -78.1074   30.3779  -71.4888 C.ar      11 UNK        -0.0933 
     15 C15       -76.1249   31.1664  -72.8575 C.3       11 UNK         0.0166 
     16 S16       -75.0915   32.3715  -71.9634 S.3       11 UNK        -0.2615 
     17 C17       -73.6128   31.4095  -71.4837 C.3       11 UNK        -0.0865 
     18 CA        -72.5021   31.4129  -72.5682 C.3       10 UNK         0.0862 
     19 C         -71.1661   30.8849  -71.9865 C.2       10 UNK         0.5551 
     20 N         -70.2214   31.7670  -71.6926 N.am      10 UNK        -0.7319 
     21 O         -71.0005   29.6878  -71.7591 O.2       10 UNK        -0.5018 
     22 N         -72.8815   30.6083  -73.7363 N.am      10 UNK        -0.4509 
     23 C         -72.5326   30.8766  -74.9992 C.2       10 UNK         0.4899 
     24 O         -71.9294   31.8940  -75.3454 O.2       10 UNK        -0.4839 
     25 CA        -72.9296   29.8127  -76.0437 C.3       9 UNK         0.0222 
     26 CB        -72.3987   30.1246  -77.4588 C.3       9 UNK        -0.1966 
     27 N         -72.5559   28.4504  -75.6414 N.am      9 UNK        -0.4218 
     28 C         -71.3255   27.9941  -75.3509 C.2       9 UNK         0.5020 
     29 O         -70.3010   28.6763  -75.3889 O.2       9 UNK        -0.5274 
     30 CA        -71.2210   26.5106  -74.9690 C.3       8 UNK         0.0270 
     31 CB        -71.7417   26.2739  -73.5400 C.3       8 UNK        -0.1976 
     32 N         -71.9630   25.6744  -75.9142 N.am      8 UNK        -0.4313 
     33 C         -71.4447   25.1336  -77.0263 C.2       8 UNK         0.5041 
     34 O         -70.2573   25.2234  -77.3414 O.2       8 UNK        -0.5577 
     35 CA        -72.4020   24.3506  -77.9469 C.3       7 UNK         0.0284 
     36 CB        -72.3497   22.8489  -77.6230 C.3       7 UNK        -0.1958 
     37 N         -73.7891   24.8107  -77.8593 N.am      7 UNK        -0.4454 
     38 C         -74.2360   25.9800  -78.3414 C.2       7 UNK         0.5089 
     39 O         -73.5516   26.7455  -79.0198 O.2       7 UNK        -0.5125 
     40 CA        -75.6779   26.3854  -77.9745 C.3       6 UNK         0.0408 
     41 CB        -76.6261   26.1180  -79.1528 C.3       6 UNK        -0.1791 
     42 N         -76.1909   25.7296  -76.7623 N.am      6 UNK        -0.4762 
     43 C         -75.6534   25.8837  -75.5403 C.2       6 UNK         0.5007 
     44 O         -74.6860   26.6175  -75.3300 O.2       6 UNK        -0.5032 
     45 CA        -76.2300   25.0848  -74.3514 C.3       5 UNK         0.0783 
     46 C46       -76.9255   26.0396  -73.3606 C.3       11 UNK        -0.0857 
     47 S47       -77.0496   25.3352  -71.6799 S.3       11 UNK        -0.2512 
     48 C48       -76.1889   26.6018  -70.6804 C.3       11 UNK         0.0225 
     49 N         -77.1051   23.9787  -74.7485 N.am      5 UNK        -0.4615 
     50 C         -76.6888   22.8783  -75.3900 C.2       4 UNK         0.5053 
     51 O         -75.5105   22.6685  -75.6814 O.2       4 UNK        -0.5105 
     52 CA        -77.7626   21.8628  -75.8237 C.3       4 UNK         0.0263 
     53 CB        -77.9214   20.7667  -74.7584 C.3       4 UNK        -0.1981 
     54 N         -79.0764   22.4492  -76.1192 N.am      4 UNK        -0.4224 
     55 C         -79.3141   23.4139  -77.0200 C.2       3 UNK         0.4895 
     56 O         -78.4324   23.9497  -77.6909 O.2       3 UNK        -0.5091 
     57 CA        -80.7603   23.8935  -77.1879 C.3       3 UNK         0.0250 
     58 CB        -81.8231   22.9385  -76.6059 C.3       3 UNK        -0.1996 
     59 N         -80.8688   25.1935  -76.5361 N.am      3 UNK        -0.4254 
     60 C         -81.3569   26.3111  -77.0885 C.2       2 UNK         0.5004 
     61 O         -81.7919   26.3679  -78.2404 O.2       2 UNK        -0.5226 
     62 CA        -81.3507   27.5851  -76.2133 C.3       2 UNK         0.0269 
     63 CB        -82.4947   28.5581  -76.5712 C.3       2 UNK        -0.1926 
     64 N         -81.3283   27.3159  -74.7676 N.am      2 UNK        -0.4687 
     65 C         -82.2480   26.6557  -74.0451 C.2       1 UNK         0.5165 
     66 O         -83.3082   26.2276  -74.5054 O.2       1 UNK        -0.5079 
     67 H67       -80.7252   22.0942  -73.3058 H         1 UNK         0.0900 
     68 H68       -81.2230   22.5341  -71.6717 H         1 UNK         0.0900 
     69 H69       -79.5191   22.6058  -72.1203 H         1 UNK         0.0900 
     70 H70       -82.2222   24.5096  -71.6552 H         1 UNK         0.2959 
     71 H71       -82.8451   26.5766  -72.0151 H         1 UNK         0.1079 
     72 H72       -79.8879   27.2382  -72.5048 H         1 UNK         0.0837 
     73 H73       -80.5810   26.8929  -70.9516 H         1 UNK         0.0837 
     74 H74       -80.4684   29.0144  -69.4564 H         1 UNK         0.0685 
     75 H75       -80.4410   30.6222  -70.1388 H         1 UNK         0.0685 
     76 H76       -78.6168   27.4543  -69.8351 H         1 UNK         0.1434 
     77 H77       -75.1810   28.7469  -72.0298 H         1 UNK         0.1329 
     78 H78       -78.6259   31.2863  -71.7637 H         1 UNK         0.1335 
     79 H79       -75.5361   30.6506  -73.6150 H         1 UNK         0.0680 
     80 H80       -76.8852   31.7202  -73.4105 H         1 UNK         0.0680 
     81 H81       -73.8844   30.3955  -71.1953 H         1 UNK         0.1032 
     82 H82       -73.2360   31.8732  -70.5697 H         1 UNK         0.1032 
     83 H83       -72.3519   32.4483  -72.8821 H         1 UNK         0.0461 
     84 H84       -69.3526   31.4414  -71.2983 H         1 UNK         0.3453 
     85 H85       -70.3541   32.7511  -71.8679 H         1 UNK         0.3453 
     86 H86       -73.3054   29.7153  -73.5376 H         1 UNK         0.2984 
     87 H87       -74.0195   29.8256  -76.0937 H         1 UNK         0.0554 
     88 H88       -72.7631   31.0909  -77.8093 H         1 UNK         0.0847 
     89 H89       -72.7268   29.3745  -78.1786 H         1 UNK         0.0847 
     90 H90       -71.3091   30.1589  -77.4845 H         1 UNK         0.0847 
     91 H91       -73.3329   27.7970  -75.5520 H         1 UNK         0.3141 
     92 H92       -70.1649   26.2322  -74.9870 H         1 UNK         0.0743 
     93 H93       -71.1921   26.8846  -72.8220 H         1 UNK         0.0784 
     94 H94       -72.7974   26.5255  -73.4362 H         1 UNK         0.0784 
     95 H95       -71.6162   25.2329  -73.2419 H         1 UNK         0.0784 
     96 H96       -72.9624   25.6087  -75.7657 H         1 UNK         0.3213 
     97 H97       -72.0592   24.4918  -78.9744 H         1 UNK         0.0855 
     98 H98       -72.7007   22.6410  -76.6111 H         1 UNK         0.0814 
     99 H99       -71.3303   22.4681  -77.6998 H         1 UNK         0.0814 
    100 H100      -72.9631   22.2717  -78.3151 H         1 UNK         0.0814 
    101 H101      -74.4303   24.2354  -77.3283 H         1 UNK         0.3105 
    102 H102      -75.6716   27.4609  -77.7849 H         1 UNK         0.0547 
    103 H103      -76.3033   26.6578  -80.0439 H         1 UNK         0.0837 
    104 H104      -76.6603   25.0585  -79.4092 H         1 UNK         0.0837 
    105 H105      -77.6426   26.4418  -78.9283 H         1 UNK         0.0837 
    106 H106      -76.9755   25.0957  -76.8878 H         1 UNK         0.3020 
    107 H107      -75.3624   24.6502  -73.8493 H         1 UNK         0.1245 
    108 H108      -77.9215   26.3117  -73.7110 H         1 UNK         0.0781 
    109 H109      -76.3745   26.9758  -73.3058 H         1 UNK         0.0781 
    110 H110      -76.2379   26.3237  -69.6267 H         1 UNK         0.0836 
    111 H111      -75.1313   26.6147  -70.9485 H         1 UNK         0.0836 
    112 H112      -78.0901   24.0858  -74.5266 H         1 UNK         0.3022 
    113 H113      -77.4066   21.3949  -76.7438 H         1 UNK         0.0747 
    114 H114      -76.9661   20.2799  -74.5559 H         1 UNK         0.0793 
    115 H115      -78.6145   19.9907  -75.0839 H         1 UNK         0.0793 
    116 H116      -78.2854   21.1710  -73.8136 H         1 UNK         0.0793 
    117 H117      -79.8615   22.0792  -75.6053 H         1 UNK         0.3047 
    118 H118      -80.9335   23.9852  -78.2623 H         1 UNK         0.0822 
    119 H119      -82.8269   23.2907  -76.8449 H         1 UNK         0.0807 
    120 H120      -81.7607   22.8592  -75.5207 H         1 UNK         0.0807 
    121 H121      -81.7293   21.9361  -77.0262 H         1 UNK         0.0807 
    122 H122      -80.5175   25.2333  -75.5823 H         1 UNK         0.2946 
    123 H123      -80.4103   28.0894  -76.4414 H         1 UNK         0.1144 
    124 H124      -82.4210   28.8853  -77.6091 H         1 UNK         0.0793 
    125 H125      -82.4637   29.4527  -75.9492 H         1 UNK         0.0793 
    126 H126      -83.4742   28.0957  -76.4466 H         1 UNK         0.0793 
    127 H127      -80.4937   27.6161  -74.2839 H         1 UNK         0.2896 
@<TRIPOS>BOND
     1    1    2 1    
     2    1   67 1    
     3    1   68 1    
     4    1   69 1    
     5    2    3 2    
     6    2    4 am   BACKBONE|DICT|INTERRES
     7    4    5 1    
     8    4   70 1    
     9    5    6 1    
    10    5   65 1    
    11    5   71 1    
    12    6    7 1    
    13    6   72 1    
    14    6   73 1    
    15    7    8 1    
    16    8    9 1    
    17    8   74 1    
    18    8   75 1    
    19    9   10 ar   
    20    9   14 ar   
    21   10   11 ar   
    22   10   76 1    
    23   11   12 ar   
    24   11   48 1    
    25   12   13 ar   
    26   12   77 1    
    27   13   14 ar   
    28   13   15 1    
    29   14   78 1    
    30   15   16 1    
    31   15   79 1    
    32   15   80 1    
    33   16   17 1    
    34   17   18 1    
    35   17   81 1    
    36   17   82 1    
    37   18   19 1    
    38   18   22 1    
    39   18   83 1    
    40   19   20 am   BACKBONE|DICT|INTERRES
    41   19   21 2    
    42   20   84 1    
    43   20   85 1    
    44   22   23 am   BACKBONE|DICT|INTERRES
    45   22   86 1    
    46   23   24 2    
    47   23   25 1    
    48   25   26 1    
    49   25   27 1    
    50   25   87 1    
    51   26   88 1    
    52   26   89 1    
    53   26   90 1    
    54   27   28 am   BACKBONE|DICT|INTERRES
    55   27   91 1    
    56   28   29 2    
    57   28   30 1    
    58   30   31 1    
    59   30   32 1    
    60   30   92 1    
    61   31   93 1    
    62   31   94 1    
    63   31   95 1    
    64   32   33 am   BACKBONE|DICT|INTERRES
    65   32   96 1    
    66   33   34 2    
    67   33   35 1    
    68   35   36 1    
    69   35   37 1    
    70   35   97 1    
    71   36   98 1    
    72   36   99 1    
    73   36  100 1    
    74   37   38 am   BACKBONE|DICT|INTERRES
    75   37  101 1    
    76   38   39 2    
    77   38   40 1    
    78   40   41 1    
    79   40   42 1    
    80   40  102 1    
    81   41  103 1    
    82   41  104 1    
    83   41  105 1    
    84   42   43 am   BACKBONE|DICT|INTERRES
    85   42  106 1    
    86   43   44 2    
    87   43   45 1    
    88   45   46 1    
    89   45   49 1    
    90   45  107 1    
    91   46   47 1    
    92   46  108 1    
    93   46  109 1    
    94   47   48 1    
    95   48  110 1    
    96   48  111 1    
    97   49   50 am   BACKBONE|DICT|INTERRES
    98   49  112 1    
    99   50   51 2    
   100   50   52 1    
   101   52   53 1    
   102   52   54 1    
   103   52  113 1    
   104   53  114 1    
   105   53  115 1    
   106   53  116 1    
   107   54   55 am   BACKBONE|DICT|INTERRES
   108   54  117 1    
   109   55   56 2    
   110   55   57 1    
   111   57   58 1    
   112   57   59 1    
   113   57  118 1    
   114   58  119 1    
   115   58  120 1    
   116   58  121 1    
   117   59   60 am   BACKBONE|DICT|INTERRES
   118   59  122 1    
   119   60   61 2    
   120   60   62 1    
   121   62   63 1    
   122   62   64 1    
   123   62  123 1    
   124   63  124 1    
   125   63  125 1    
   126   63  126 1    
   127   64   65 am   BACKBONE|DICT|INTERRES
   128   64  127 1    
   129   65   66 2    
@<TRIPOS>SUBSTRUCTURE
     1 UNK         1 GROUP             0       ****    0 ROOT    
