@<TRIPOS>MOLECULE
3R135
127   129    1
SMALL
USER_CHARGES


@<TRIPOS>ATOM
      1 CA        -83.3307   25.5127  -69.4559 C.3       0 UNK        -0.1998 
      2 C         -83.5602   25.9200  -70.9036 C.2       0 UNK         0.4909 
      3 O         -84.6899   25.8490  -71.3885 O.2       0 UNK        -0.5240 
      4 N         -82.4959   26.3433  -71.5987 N.am      1 UNK        -0.4739 
      5 CA        -82.5355   26.7824  -73.0020 C.3       1 UNK         0.0864 
      6 C6        -81.3362   27.6986  -73.3536 C.3       11 UNK        -0.0881 
      7 S7        -81.4063   29.2736  -72.4371 S.3       11 UNK        -0.2682 
      8 C8        -79.9813   29.1312  -71.3044 C.3       11 UNK         0.0289 
      9 C9        -78.6183   29.3337  -71.9664 C.ar      11 UNK        -0.0687 
     10 C10       -78.4332   30.2650  -72.9967 C.ar      11 UNK        -0.0823 
     11 C11       -77.1677   30.4796  -73.5524 C.ar      11 UNK        -0.0830 
     12 C12       -76.0750   29.7621  -73.0585 C.ar      11 UNK        -0.1021 
     13 C13       -76.2419   28.8323  -72.0297 C.ar      11 UNK        -0.0753 
     14 C14       -77.5133   28.6210  -71.4890 C.ar      11 UNK        -0.0933 
     15 C15       -75.0370   28.0788  -71.4947 C.3       11 UNK         0.0166 
     16 S16       -74.1283   29.1039  -70.2981 S.3       11 UNK        -0.2615 
     17 C17       -72.4293   28.4649  -70.4788 C.3       11 UNK        -0.0865 
     18 CA        -71.5361   29.4159  -71.3181 C.3       10 UNK         0.0862 
     19 C         -70.0481   28.9784  -71.2370 C.2       10 UNK         0.5551 
     20 N         -69.2995   29.5051  -70.2779 N.am      10 UNK        -0.7319 
     21 O         -69.5820   28.1374  -72.0033 O.2       10 UNK        -0.5018 
     22 N         -72.0089   29.5074  -72.7060 N.am      10 UNK        -0.4509 
     23 C         -71.5926   30.3941  -73.6157 C.2       10 UNK         0.4899 
     24 O         -70.8349   31.3325  -73.3634 O.2       10 UNK        -0.4839 
     25 CA        -72.0927   30.1636  -75.0568 C.3       9 UNK         0.0222 
     26 CB        -71.6965   31.3009  -76.0160 C.3       9 UNK        -0.1966 
     27 N         -71.6004   28.8895  -75.5921 N.am      9 UNK        -0.4218 
     28 C         -72.1056   27.6895  -75.2822 C.2       9 UNK         0.5020 
     29 O         -73.0606   27.5350  -74.5208 O.2       9 UNK        -0.5274 
     30 CA        -71.3915   26.4611  -75.8499 C.3       8 UNK         0.0270 
     31 CB        -70.4486   25.8583  -74.7899 C.3       8 UNK        -0.1976 
     32 N         -72.3881   25.4795  -76.2759 N.am      8 UNK        -0.4313 
     33 C         -72.1429   24.4480  -77.0951 C.2       8 UNK         0.5041 
     34 O         -71.0247   24.1697  -77.5318 O.2       8 UNK        -0.5577 
     35 CA        -73.3475   23.6040  -77.5425 C.3       7 UNK         0.0284 
     36 CB        -73.8537   22.6906  -76.4132 C.3       7 UNK        -0.1958 
     37 N         -74.4321   24.4509  -78.0396 N.am      7 UNK        -0.4454 
     38 C         -74.4158   25.0728  -79.2283 C.2       7 UNK         0.5089 
     39 O         -73.5360   24.9105  -80.0746 O.2       7 UNK        -0.5125 
     40 CA        -75.5631   26.0531  -79.5279 C.3       6 UNK         0.0408 
     41 CB        -76.6938   25.3525  -80.2982 C.3       6 UNK        -0.1791 
     42 N         -76.0993   26.6730  -78.3149 N.am      6 UNK        -0.4762 
     43 C         -75.4733   27.6342  -77.6174 C.2       6 UNK         0.5007 
     44 O         -74.4080   28.1437  -77.9658 O.2       6 UNK        -0.5032 
     45 CA        -76.1434   28.0892  -76.3029 C.3       5 UNK         0.0783 
     46 C46       -77.0143   29.3568  -76.5232 C.3       11 UNK        -0.0857 
     47 S47       -76.0850   30.8741  -76.1193 S.3       11 UNK        -0.2512 
     48 C48       -76.9898   31.5087  -74.6656 C.3       11 UNK         0.0225 
     49 N         -76.8939   27.0165  -75.6394 N.am      5 UNK        -0.4615 
     50 C         -76.3453   25.8959  -75.1489 C.2       4 UNK         0.5053 
     51 O         -75.1540   25.6109  -75.2486 O.2       4 UNK        -0.5105 
     52 CA        -77.3042   24.8857  -74.5035 C.3       4 UNK         0.0263 
     53 CB        -77.6586   25.3106  -73.0698 C.3       4 UNK        -0.1981 
     54 N         -78.5312   24.6820  -75.2782 N.am      4 UNK        -0.4224 
     55 C         -78.5819   24.2290  -76.5405 C.2       3 UNK         0.4895 
     56 O         -77.5782   23.9885  -77.2129 O.2       3 UNK        -0.5091 
     57 CA        -79.9795   24.0431  -77.1681 C.3       3 UNK         0.0250 
     58 CB        -80.0150   22.8849  -78.1877 C.3       3 UNK        -0.1996 
     59 N         -81.0679   23.9154  -76.1870 N.am      3 UNK        -0.4254 
     60 C         -81.2411   22.9560  -75.2654 C.2       2 UNK         0.5004 
     61 O         -80.4788   21.9998  -75.1156 O.2       2 UNK        -0.5226 
     62 CA        -82.4508   23.1335  -74.3260 C.3       2 UNK         0.0269 
     63 CB        -82.6259   21.9511  -73.3541 C.3       2 UNK        -0.1926 
     64 N         -82.3661   24.3727  -73.5446 N.am      2 UNK        -0.4687 
     65 C         -82.6403   25.6055  -73.9970 C.2       1 UNK         0.5165 
     66 O         -82.9566   25.8332  -75.1661 O.2       1 UNK        -0.5079 
     67 H67       -82.2886   25.6295  -69.1589 H         1 UNK         0.0900 
     68 H68       -83.6102   24.4695  -69.3107 H         1 UNK         0.0900 
     69 H69       -83.9421   26.1247  -68.7933 H         1 UNK         0.0900 
     70 H70       -81.5949   26.3931  -71.1459 H         1 UNK         0.2959 
     71 H71       -83.4485   27.3658  -73.1442 H         1 UNK         0.1079 
     72 H72       -80.3882   27.1939  -73.1639 H         1 UNK         0.0837 
     73 H73       -81.3383   27.9502  -74.4163 H         1 UNK         0.0837 
     74 H74       -80.0909   29.8841  -70.5230 H         1 UNK         0.0685 
     75 H75       -80.0258   28.1627  -70.8042 H         1 UNK         0.0685 
     76 H76       -79.2757   30.8374  -73.3591 H         1 UNK         0.1434 
     77 H77       -75.0896   29.9315  -73.4695 H         1 UNK         0.1329 
     78 H78       -77.6370   27.9134  -70.6806 H         1 UNK         0.1335 
     79 H79       -75.3406   27.1466  -71.0162 H         1 UNK         0.0680 
     80 H80       -74.3908   27.8005  -72.3262 H         1 UNK         0.0680 
     81 H81       -72.4442   27.4612  -70.9084 H         1 UNK         0.1032 
     82 H82       -72.0218   28.3522  -69.4721 H         1 UNK         0.1032 
     83 H83       -71.6106   30.4172  -70.8883 H         1 UNK         0.0461 
     84 H84       -69.6749   30.1885  -69.6386 H         1 UNK         0.3453 
     85 H85       -68.3352   29.2219  -70.1982 H         1 UNK         0.3453 
     86 H86       -72.5714   28.7331  -73.0439 H         1 UNK         0.2984 
     87 H87       -73.1837   30.1323  -75.0228 H         1 UNK         0.0554 
     88 H88       -72.1162   31.1434  -77.0099 H         1 UNK         0.0847 
     89 H89       -70.6142   31.3903  -76.1168 H         1 UNK         0.0847 
     90 H90       -72.0719   32.2604  -75.6577 H         1 UNK         0.0847 
     91 H91       -70.7837   28.9361  -76.1845 H         1 UNK         0.3141 
     92 H92       -70.8091   26.7657  -76.7221 H         1 UNK         0.0743 
     93 H93       -71.0013   25.5061  -73.9179 H         1 UNK         0.0784 
     94 H94       -69.8781   25.0188  -75.1868 H         1 UNK         0.0784 
     95 H95       -69.7287   26.5995  -74.4401 H         1 UNK         0.0784 
     96 H96       -73.3348   25.6432  -75.9309 H         1 UNK         0.3213 
     97 H97       -73.0178   22.9604  -78.3613 H         1 UNK         0.0855 
     98 H98       -74.1609   23.2525  -75.5319 H         1 UNK         0.0814 
     99 H99       -73.0712   21.9997  -76.0972 H         1 UNK         0.0814 
    100 H100      -74.7038   22.0912  -76.7397 H         1 UNK         0.0814 
    101 H101      -75.1950   24.6426  -77.4022 H         1 UNK         0.3105 
    102 H102      -75.1643   26.8436  -80.1674 H         1 UNK         0.0547 
    103 H103      -76.3247   24.9456  -81.2406 H         1 UNK         0.0837 
    104 H104      -77.1190   24.5222  -79.7346 H         1 UNK         0.0837 
    105 H105      -77.5005   26.0445  -80.5397 H         1 UNK         0.0837 
    106 H106      -76.9484   26.2752  -77.9383 H         1 UNK         0.3020 
    107 H107      -75.3276   28.3335  -75.6184 H         1 UNK         0.1245 
    108 H108      -77.9135   29.3251  -75.9068 H         1 UNK         0.0781 
    109 H109      -77.3829   29.4328  -77.5484 H         1 UNK         0.0781 
    110 H110      -77.9579   31.8828  -75.0026 H         1 UNK         0.0836 
    111 H111      -76.4519   32.3691  -74.2656 H         1 UNK         0.0836 
    112 H112      -77.8859   27.1585  -75.5261 H         1 UNK         0.3022 
    113 H113      -76.7860   23.9255  -74.4560 H         1 UNK         0.0747 
    114 H114      -78.2796   24.5642  -72.5742 H         1 UNK         0.0793 
    115 H115      -76.7570   25.4318  -72.4677 H         1 UNK         0.0793 
    116 H116      -78.1907   26.2613  -73.0493 H         1 UNK         0.0793 
    117 H117      -79.4048   24.8381  -74.7996 H         1 UNK         0.3047 
    118 H118      -80.1792   24.9650  -77.7163 H         1 UNK         0.0822 
    119 H119      -81.0031   22.7801  -78.6357 H         1 UNK         0.0807 
    120 H120      -79.7515   21.9322  -77.7275 H         1 UNK         0.0807 
    121 H121      -79.3097   23.0564  -79.0019 H         1 UNK         0.0807 
    122 H122      -81.7453   24.6740  -76.1787 H         1 UNK         0.2946 
    123 H123      -83.3414   23.1764  -74.9579 H         1 UNK         0.1144 
    124 H124      -83.5226   22.0680  -72.7450 H         1 UNK         0.0793 
    125 H125      -81.7735   21.8501  -72.6810 H         1 UNK         0.0793 
    126 H126      -82.7265   21.0102  -73.8970 H         1 UNK         0.0793 
    127 H127      -82.0982   24.2774  -72.5757 H         1 UNK         0.2896 
@<TRIPOS>BOND
     1    1    2 1    
     2    1   67 1    
     3    1   68 1    
     4    1   69 1    
     5    2    3 2    
     6    2    4 am   BACKBONE|DICT|INTERRES
     7    4    5 1    
     8    4   70 1    
     9    5    6 1    
    10    5   65 1    
    11    5   71 1    
    12    6    7 1    
    13    6   72 1    
    14    6   73 1    
    15    7    8 1    
    16    8    9 1    
    17    8   74 1    
    18    8   75 1    
    19    9   10 ar   
    20    9   14 ar   
    21   10   11 ar   
    22   10   76 1    
    23   11   12 ar   
    24   11   48 1    
    25   12   13 ar   
    26   12   77 1    
    27   13   14 ar   
    28   13   15 1    
    29   14   78 1    
    30   15   16 1    
    31   15   79 1    
    32   15   80 1    
    33   16   17 1    
    34   17   18 1    
    35   17   81 1    
    36   17   82 1    
    37   18   19 1    
    38   18   22 1    
    39   18   83 1    
    40   19   20 am   BACKBONE|DICT|INTERRES
    41   19   21 2    
    42   20   84 1    
    43   20   85 1    
    44   22   23 am   BACKBONE|DICT|INTERRES
    45   22   86 1    
    46   23   24 2    
    47   23   25 1    
    48   25   26 1    
    49   25   27 1    
    50   25   87 1    
    51   26   88 1    
    52   26   89 1    
    53   26   90 1    
    54   27   28 am   BACKBONE|DICT|INTERRES
    55   27   91 1    
    56   28   29 2    
    57   28   30 1    
    58   30   31 1    
    59   30   32 1    
    60   30   92 1    
    61   31   93 1    
    62   31   94 1    
    63   31   95 1    
    64   32   33 am   BACKBONE|DICT|INTERRES
    65   32   96 1    
    66   33   34 2    
    67   33   35 1    
    68   35   36 1    
    69   35   37 1    
    70   35   97 1    
    71   36   98 1    
    72   36   99 1    
    73   36  100 1    
    74   37   38 am   BACKBONE|DICT|INTERRES
    75   37  101 1    
    76   38   39 2    
    77   38   40 1    
    78   40   41 1    
    79   40   42 1    
    80   40  102 1    
    81   41  103 1    
    82   41  104 1    
    83   41  105 1    
    84   42   43 am   BACKBONE|DICT|INTERRES
    85   42  106 1    
    86   43   44 2    
    87   43   45 1    
    88   45   46 1    
    89   45   49 1    
    90   45  107 1    
    91   46   47 1    
    92   46  108 1    
    93   46  109 1    
    94   47   48 1    
    95   48  110 1    
    96   48  111 1    
    97   49   50 am   BACKBONE|DICT|INTERRES
    98   49  112 1    
    99   50   51 2    
   100   50   52 1    
   101   52   53 1    
   102   52   54 1    
   103   52  113 1    
   104   53  114 1    
   105   53  115 1    
   106   53  116 1    
   107   54   55 am   BACKBONE|DICT|INTERRES
   108   54  117 1    
   109   55   56 2    
   110   55   57 1    
   111   57   58 1    
   112   57   59 1    
   113   57  118 1    
   114   58  119 1    
   115   58  120 1    
   116   58  121 1    
   117   59   60 am   BACKBONE|DICT|INTERRES
   118   59  122 1    
   119   60   61 2    
   120   60   62 1    
   121   62   63 1    
   122   62   64 1    
   123   62  123 1    
   124   63  124 1    
   125   63  125 1    
   126   63  126 1    
   127   64   65 am   BACKBONE|DICT|INTERRES
   128   64  127 1    
   129   65   66 2    
@<TRIPOS>SUBSTRUCTURE
     1 UNK         1 GROUP             0       ****    0 ROOT    
