@<TRIPOS>MOLECULE
3R135
127   129    1
SMALL
USER_CHARGES


@<TRIPOS>ATOM
      1 CA        -81.2156   23.2934  -72.1718 C.3       0 UNK        -0.1998 
      2 C         -81.7721   24.5700  -72.7819 C.2       0 UNK         0.4909 
      3 O         -82.9892   24.7393  -72.8584 O.2       0 UNK        -0.5240 
      4 N         -80.8903   25.4680  -73.2368 N.am      1 UNK        -0.4739 
      5 CA        -81.2165   26.7610  -73.8545 C.3       1 UNK         0.0864 
      6 C6        -80.0853   27.7853  -73.5718 C.3       11 UNK        -0.0881 
      7 S7        -80.6912   29.5018  -73.4296 S.3       11 UNK        -0.2682 
      8 C8        -80.5968   29.8043  -71.6309 C.3       11 UNK         0.0289 
      9 C9        -79.1646   29.7550  -71.1138 C.ar      11 UNK        -0.0687 
     10 C10       -78.7224   28.6565  -70.3693 C.ar      11 UNK        -0.0823 
     11 C11       -77.3873   28.5661  -69.9675 C.ar      11 UNK        -0.0830 
     12 C12       -76.5099   29.6182  -70.2489 C.ar      11 UNK        -0.1021 
     13 C13       -76.9362   30.7158  -71.0009 C.ar      11 UNK        -0.0753 
     14 C14       -78.2683   30.7838  -71.4218 C.ar      11 UNK        -0.0933 
     15 C15       -75.9471   31.8011  -71.4025 C.3       11 UNK         0.0166 
     16 S16       -75.0027   31.3268  -72.8916 S.3       11 UNK        -0.2615 
     17 C17       -73.7026   30.2470  -72.1944 C.3       11 UNK        -0.0865 
     18 CA        -72.3648   30.3319  -72.9768 C.3       10 UNK         0.0862 
     19 C         -71.1946   29.6680  -72.1879 C.2       10 UNK         0.5551 
     20 N         -70.4057   28.7702  -72.7672 N.am      10 UNK        -0.7319 
     21 O         -70.9884   29.9851  -71.0190 O.2       10 UNK        -0.5018 
     22 N         -72.5133   29.8342  -74.3543 N.am      10 UNK        -0.4509 
     23 C         -71.7794   30.2438  -75.3955 C.2       10 UNK         0.4899 
     24 O         -70.9493   31.1527  -75.3321 O.2       10 UNK        -0.4839 
     25 CA        -72.0027   29.4923  -76.7231 C.3       9 UNK         0.0222 
     26 CB        -70.9664   29.8606  -77.8055 C.3       9 UNK        -0.1966 
     27 N         -72.0716   28.0351  -76.5571 N.am      9 UNK        -0.4218 
     28 C         -71.1506   27.2210  -76.0162 C.2       9 UNK         0.5020 
     29 O         -70.0820   27.6178  -75.5499 O.2       9 UNK        -0.5274 
     30 CA        -71.4709   25.7118  -75.9467 C.3       8 UNK         0.0270 
     31 CB        -71.5599   25.2483  -74.4826 C.3       8 UNK        -0.1976 
     32 N         -72.7085   25.3353  -76.6355 N.am      8 UNK        -0.4313 
     33 C         -72.8693   25.2700  -77.9646 C.2       8 UNK         0.5041 
     34 O         -71.9537   25.4105  -78.7752 O.2       8 UNK        -0.5577 
     35 CA        -74.3106   25.0865  -78.4701 C.3       7 UNK         0.0284 
     36 CB        -74.6923   23.5995  -78.5488 C.3       7 UNK        -0.1958 
     37 N         -75.2694   25.8097  -77.6280 N.am      7 UNK        -0.4454 
     38 C         -75.4070   27.1442  -77.6250 C.2       7 UNK         0.5089 
     39 O         -74.8019   27.8933  -78.3903 O.2       7 UNK        -0.5125 
     40 CA        -76.3306   27.7546  -76.5596 C.3       6 UNK         0.0408 
     41 CB        -77.7533   27.9320  -77.1095 C.3       6 UNK        -0.1791 
     42 N         -76.3628   26.9653  -75.3262 N.am      6 UNK        -0.4762 
     43 C         -75.3671   26.9452  -74.4249 C.2       6 UNK         0.5007 
     44 O         -74.3354   27.6075  -74.5342 O.2       6 UNK        -0.5032 
     45 CA        -75.5464   26.0244  -73.1980 C.3       5 UNK         0.0783 
     46 C46       -76.2669   26.8312  -72.0980 C.3       11 UNK        -0.0857 
     47 S47       -76.6957   25.9244  -70.5713 S.3       11 UNK        -0.2512 
     48 C48       -76.8579   27.2796  -69.3433 C.3       11 UNK         0.0225 
     49 N         -76.2311   24.7690  -73.5199 N.am      5 UNK        -0.4615 
     50 C         -75.8372   23.8862  -74.4467 C.2       4 UNK         0.5053 
     51 O         -74.8131   24.0165  -75.1181 O.2       4 UNK        -0.5105 
     52 CA        -76.7735   22.6988  -74.7365 C.3       4 UNK         0.0263 
     53 CB        -77.7677   22.3923  -73.5936 C.3       4 UNK        -0.1981 
     54 N         -77.4905   22.8864  -76.0058 N.am      4 UNK        -0.4224 
     55 C         -78.2773   23.9218  -76.3401 C.2       3 UNK         0.4895 
     56 O         -78.4945   24.8805  -75.5935 O.2       3 UNK        -0.5091 
     57 CA        -78.8865   23.9294  -77.7583 C.3       3 UNK         0.0250 
     58 CB        -78.8682   22.5594  -78.4762 C.3       3 UNK        -0.1996 
     59 N         -80.2301   24.5214  -77.7438 N.am      3 UNK        -0.4254 
     60 C         -81.3212   24.0203  -77.1467 C.2       2 UNK         0.5004 
     61 O         -81.3930   22.8928  -76.6530 O.2       2 UNK        -0.5226 
     62 CA        -82.5071   24.9875  -76.9892 C.3       2 UNK         0.0269 
     63 CB        -83.8637   24.2691  -77.0988 C.3       2 UNK        -0.1926 
     64 N         -82.3975   25.6066  -75.6704 N.am      2 UNK        -0.4687 
     65 C         -81.5285   26.5776  -75.3594 C.2       1 UNK         0.5165 
     66 O         -80.9508   27.2523  -76.2137 O.2       1 UNK        -0.5079 
     67 H67       -81.8721   22.9341  -71.3799 H         1 UNK         0.0900 
     68 H68       -80.2292   23.4548  -71.7380 H         1 UNK         0.0900 
     69 H69       -81.1394   22.5159  -72.9316 H         1 UNK         0.0900 
     70 H70       -79.9076   25.2368  -73.2307 H         1 UNK         0.2959 
     71 H71       -82.1334   27.1310  -73.3897 H         1 UNK         0.1079 
     72 H72       -79.2949   27.7405  -74.3226 H         1 UNK         0.0837 
     73 H73       -79.5874   27.5255  -72.6401 H         1 UNK         0.0837 
     74 H74       -81.0232   30.7849  -71.4150 H         1 UNK         0.0685 
     75 H75       -81.2233   29.0769  -71.1120 H         1 UNK         0.0685 
     76 H76       -79.3976   27.8375  -70.1612 H         1 UNK         0.1434 
     77 H77       -75.4745   29.5482  -69.9464 H         1 UNK         0.1329 
     78 H78       -78.6022   31.6207  -72.0200 H         1 UNK         0.1335 
     79 H79       -76.4813   32.7288  -71.6129 H         1 UNK         0.0680 
     80 H80       -75.2698   32.0254  -70.5772 H         1 UNK         0.0680 
     81 H81       -74.0621   29.2195  -72.1802 H         1 UNK         0.1032 
     82 H82       -73.5484   30.5306  -71.1520 H         1 UNK         0.1032 
     83 H83       -72.0995   31.3895  -73.0311 H         1 UNK         0.0461 
     84 H84       -69.6547   28.3647  -72.2323 H         1 UNK         0.3453 
     85 H85       -70.5130   28.5242  -73.7439 H         1 UNK         0.3453 
     86 H86       -73.1632   29.0613  -74.4812 H         1 UNK         0.2984 
     87 H87       -72.9836   29.8028  -77.0859 H         1 UNK         0.0554 
     88 H88       -71.1709   29.3416  -78.7420 H         1 UNK         0.0847 
     89 H89       -69.9516   29.6074  -77.4963 H         1 UNK         0.0847 
     90 H90       -70.9849   30.9301  -78.0184 H         1 UNK         0.0847 
     91 H91       -72.9310   27.6092  -76.8747 H         1 UNK         0.3141 
     92 H92       -70.6421   25.1837  -76.4225 H         1 UNK         0.0743 
     93 H93       -70.6207   25.4272  -73.9575 H         1 UNK         0.0784 
     94 H94       -72.3406   25.7802  -73.9392 H         1 UNK         0.0784 
     95 H95       -71.7706   24.1808  -74.4143 H         1 UNK         0.0784 
     96 H96       -73.5050   25.1073  -76.0459 H         1 UNK         0.3213 
     97 H97       -74.3615   25.4996  -79.4802 H         1 UNK         0.0855 
     98 H98       -74.0038   23.0585  -79.1993 H         1 UNK         0.0814 
     99 H99       -75.6924   23.4702  -78.9614 H         1 UNK         0.0814 
    100 H100      -74.6628   23.1138  -77.5737 H         1 UNK         0.0814 
    101 H101      -75.7428   25.2780  -76.9118 H         1 UNK         0.3105 
    102 H102      -75.9423   28.7474  -76.3202 H         1 UNK         0.0547 
    103 H103      -77.7450   28.5023  -78.0392 H         1 UNK         0.0837 
    104 H104      -78.2346   26.9773  -77.3179 H         1 UNK         0.0837 
    105 H105      -78.3836   28.4771  -76.4075 H         1 UNK         0.0837 
    106 H106      -77.1682   26.3611  -75.1874 H         1 UNK         0.3020 
    107 H107      -74.5500   25.7619  -72.8371 H         1 UNK         0.1245 
    108 H108      -77.1880   27.2711  -72.4850 H         1 UNK         0.0781 
    109 H109      -75.6245   27.6632  -71.8172 H         1 UNK         0.0781 
    110 H110      -75.8840   27.4533  -68.8829 H         1 UNK         0.0836 
    111 H111      -77.5214   26.9583  -68.5393 H         1 UNK         0.0836 
    112 H112      -77.0869   24.5907  -73.0170 H         1 UNK         0.3022 
    113 H113      -76.1305   21.8261  -74.8608 H         1 UNK         0.0747 
    114 H114      -78.3222   21.4762  -73.7974 H         1 UNK         0.0793 
    115 H115      -77.2484   22.2467  -72.6452 H         1 UNK         0.0793 
    116 H116      -78.4980   23.1887  -73.4562 H         1 UNK         0.0793 
    117 H117      -77.3533   22.1585  -76.6927 H         1 UNK         0.3047 
    118 H118      -78.2670   24.6102  -78.3437 H         1 UNK         0.0822 
    119 H119      -79.3644   21.7813  -77.8951 H         1 UNK         0.0807 
    120 H120      -77.8493   22.2248  -78.6728 H         1 UNK         0.0807 
    121 H121      -79.3703   22.6182  -79.4420 H         1 UNK         0.0807 
    122 H122      -80.2702   25.4901  -78.0311 H         1 UNK         0.2946 
    123 H123      -82.4584   25.7534  -77.7669 H         1 UNK         0.1144 
    124 H124      -84.6912   24.9737  -77.0144 H         1 UNK         0.0793 
    125 H125      -83.9897   23.5127  -76.3229 H         1 UNK         0.0793 
    126 H126      -83.9608   23.7678  -78.0627 H         1 UNK         0.0793 
    127 H127      -82.8064   25.0948  -74.8960 H         1 UNK         0.2896 
@<TRIPOS>BOND
     1    1    2 1    
     2    1   67 1    
     3    1   68 1    
     4    1   69 1    
     5    2    3 2    
     6    2    4 am   BACKBONE|DICT|INTERRES
     7    4    5 1    
     8    4   70 1    
     9    5    6 1    
    10    5   65 1    
    11    5   71 1    
    12    6    7 1    
    13    6   72 1    
    14    6   73 1    
    15    7    8 1    
    16    8    9 1    
    17    8   74 1    
    18    8   75 1    
    19    9   10 ar   
    20    9   14 ar   
    21   10   11 ar   
    22   10   76 1    
    23   11   12 ar   
    24   11   48 1    
    25   12   13 ar   
    26   12   77 1    
    27   13   14 ar   
    28   13   15 1    
    29   14   78 1    
    30   15   16 1    
    31   15   79 1    
    32   15   80 1    
    33   16   17 1    
    34   17   18 1    
    35   17   81 1    
    36   17   82 1    
    37   18   19 1    
    38   18   22 1    
    39   18   83 1    
    40   19   20 am   BACKBONE|DICT|INTERRES
    41   19   21 2    
    42   20   84 1    
    43   20   85 1    
    44   22   23 am   BACKBONE|DICT|INTERRES
    45   22   86 1    
    46   23   24 2    
    47   23   25 1    
    48   25   26 1    
    49   25   27 1    
    50   25   87 1    
    51   26   88 1    
    52   26   89 1    
    53   26   90 1    
    54   27   28 am   BACKBONE|DICT|INTERRES
    55   27   91 1    
    56   28   29 2    
    57   28   30 1    
    58   30   31 1    
    59   30   32 1    
    60   30   92 1    
    61   31   93 1    
    62   31   94 1    
    63   31   95 1    
    64   32   33 am   BACKBONE|DICT|INTERRES
    65   32   96 1    
    66   33   34 2    
    67   33   35 1    
    68   35   36 1    
    69   35   37 1    
    70   35   97 1    
    71   36   98 1    
    72   36   99 1    
    73   36  100 1    
    74   37   38 am   BACKBONE|DICT|INTERRES
    75   37  101 1    
    76   38   39 2    
    77   38   40 1    
    78   40   41 1    
    79   40   42 1    
    80   40  102 1    
    81   41  103 1    
    82   41  104 1    
    83   41  105 1    
    84   42   43 am   BACKBONE|DICT|INTERRES
    85   42  106 1    
    86   43   44 2    
    87   43   45 1    
    88   45   46 1    
    89   45   49 1    
    90   45  107 1    
    91   46   47 1    
    92   46  108 1    
    93   46  109 1    
    94   47   48 1    
    95   48  110 1    
    96   48  111 1    
    97   49   50 am   BACKBONE|DICT|INTERRES
    98   49  112 1    
    99   50   51 2    
   100   50   52 1    
   101   52   53 1    
   102   52   54 1    
   103   52  113 1    
   104   53  114 1    
   105   53  115 1    
   106   53  116 1    
   107   54   55 am   BACKBONE|DICT|INTERRES
   108   54  117 1    
   109   55   56 2    
   110   55   57 1    
   111   57   58 1    
   112   57   59 1    
   113   57  118 1    
   114   58  119 1    
   115   58  120 1    
   116   58  121 1    
   117   59   60 am   BACKBONE|DICT|INTERRES
   118   59  122 1    
   119   60   61 2    
   120   60   62 1    
   121   62   63 1    
   122   62   64 1    
   123   62  123 1    
   124   63  124 1    
   125   63  125 1    
   126   63  126 1    
   127   64   65 am   BACKBONE|DICT|INTERRES
   128   64  127 1    
   129   65   66 2    
@<TRIPOS>SUBSTRUCTURE
     1 UNK         1 GROUP             0       ****    0 ROOT    
