@<TRIPOS>MOLECULE
3R135
127   129    1
SMALL
USER_CHARGES


@<TRIPOS>ATOM
      1 CA        -84.0444   24.4557  -74.6347 C.3       0 UNK        -0.1998 
      2 C         -83.0702   25.5791  -74.3164 C.2       0 UNK         0.4909 
      3 O         -82.8399   26.4443  -75.1619 O.2       0 UNK        -0.5240 
      4 N         -82.4861   25.5636  -73.1091 N.am      1 UNK        -0.4739 
      5 CA        -81.4893   26.5262  -72.6189 C.3       1 UNK         0.0864 
      6 C6        -81.0999   26.2305  -71.1408 C.3       11 UNK        -0.0881 
      7 S7        -80.9987   27.6735  -70.0168 S.3       11 UNK        -0.2682 
      8 C8        -80.0825   28.9778  -70.9195 C.3       11 UNK         0.0289 
      9 C9        -78.6507   28.6474  -71.3473 C.ar      11 UNK        -0.0687 
     10 C10       -77.9485   27.5320  -70.8731 C.ar      11 UNK        -0.0823 
     11 C11       -76.6753   27.2280  -71.3624 C.ar      11 UNK        -0.0830 
     12 C12       -76.0795   28.0687  -72.3061 C.ar      11 UNK        -0.1021 
     13 C13       -76.7491   29.2086  -72.7575 C.ar      11 UNK        -0.0753 
     14 C14       -78.0283   29.4930  -72.2718 C.ar      11 UNK        -0.0933 
     15 C15       -76.1103   30.0996  -73.8101 C.3       11 UNK         0.0166 
     16 S16       -74.7487   31.0890  -73.1260 S.3       11 UNK        -0.2615 
     17 C17       -74.1037   31.8543  -74.6565 C.3       11 UNK        -0.0865 
     18 CA        -72.5767   32.1258  -74.6286 C.3       10 UNK         0.0862 
     19 C         -72.2114   33.2893  -73.6570 C.2       10 UNK         0.5551 
     20 N         -71.4465   33.0574  -72.5967 N.am      10 UNK        -0.7319 
     21 O         -72.6217   34.4257  -73.8807 O.2       10 UNK        -0.5018 
     22 N         -71.8048   30.8821  -74.4563 N.am      10 UNK        -0.4509 
     23 C         -70.4976   30.7572  -74.7332 C.2       10 UNK         0.4899 
     24 O         -69.8154   31.6595  -75.2194 O.2       10 UNK        -0.4839 
     25 CA        -69.8237   29.4134  -74.4233 C.3       9 UNK         0.0222 
     26 CB        -69.2569   29.4066  -72.9913 C.3       9 UNK        -0.1966 
     27 N         -70.7345   28.2875  -74.6187 N.am      9 UNK        -0.4218 
     28 C         -70.3850   27.0202  -74.8513 C.2       9 UNK         0.5020 
     29 O         -69.2172   26.6336  -74.9216 O.2       9 UNK        -0.5274 
     30 CA        -71.5252   26.0007  -75.0377 C.3       8 UNK         0.0270 
     31 CB        -72.0818   25.5454  -73.6749 C.3       8 UNK        -0.1976 
     32 N         -72.6076   26.4186  -75.9431 N.am      8 UNK        -0.4313 
     33 C         -73.4612   27.4461  -75.8425 C.2       8 UNK         0.5041 
     34 O         -73.4384   28.2623  -74.9209 O.2       8 UNK        -0.5577 
     35 CA        -74.5104   27.6112  -76.9575 C.3       7 UNK         0.0284 
     36 CB        -73.9103   28.3314  -78.1794 C.3       7 UNK        -0.1958 
     37 N         -75.1977   26.3688  -77.3351 N.am      7 UNK        -0.4454 
     38 C         -74.7073   25.2612  -77.9084 C.2       7 UNK         0.5089 
     39 O         -73.5411   25.1364  -78.2884 O.2       7 UNK        -0.5125 
     40 CA        -75.6895   24.0773  -77.9813 C.3       6 UNK         0.0408 
     41 CB        -75.0727   22.8041  -78.5970 C.3       6 UNK        -0.1791 
     42 N         -76.2743   23.8075  -76.6608 N.am      6 UNK        -0.4762 
     43 C         -75.6243   23.4535  -75.5391 C.2       6 UNK         0.5007 
     44 O         -74.4255   23.1758  -75.4998 O.2       6 UNK        -0.5032 
     45 CA        -76.4326   23.4277  -74.2245 C.3       5 UNK         0.0783 
     46 C46       -76.0868   24.6641  -73.3609 C.3       11 UNK        -0.0857 
     47 S47       -76.6669   24.4787  -71.6445 S.3       11 UNK        -0.2512 
     48 C48       -75.9610   25.9744  -70.8827 C.3       11 UNK         0.0225 
     49 N         -77.8781   23.3225  -74.4493 N.am      5 UNK        -0.4615 
     50 C         -78.5097   22.2152  -74.8594 C.2       4 UNK         0.5053 
     51 O         -77.9498   21.1360  -75.0518 O.2       4 UNK        -0.5105 
     52 CA        -80.0153   22.3473  -75.1296 C.3       4 UNK         0.0263 
     53 CB        -80.8185   22.2868  -73.8195 C.3       4 UNK        -0.1981 
     54 N         -80.3153   23.5902  -75.8443 N.am      4 UNK        -0.4224 
     55 C         -80.1722   23.7516  -77.1683 C.2       3 UNK         0.4895 
     56 O         -79.8294   22.8497  -77.9325 O.2       3 UNK        -0.5091 
     57 CA        -80.4488   25.1497  -77.7486 C.3       3 UNK         0.0250 
     58 CB        -81.8802   25.2303  -78.3026 C.3       3 UNK        -0.1996 
     59 N         -80.2406   26.2239  -76.7754 N.am      3 UNK        -0.4254 
     60 C         -79.0330   26.6764  -76.4064 C.2       2 UNK         0.5004 
     61 O         -77.9737   26.2632  -76.8759 O.2       2 UNK        -0.5226 
     62 CA        -78.9870   27.7395  -75.2970 C.3       2 UNK         0.0269 
     63 CB        -79.0210   29.1480  -75.9099 C.3       2 UNK        -0.1926 
     64 N         -80.0627   27.6074  -74.3100 N.am      2 UNK        -0.4687 
     65 C         -80.2571   26.5226  -73.5473 C.2       1 UNK         0.5165 
     66 O         -79.5546   25.5114  -73.6134 O.2       1 UNK        -0.5079 
     67 H67       -85.0052   24.8688  -74.9407 H         1 UNK         0.0900 
     68 H68       -83.6596   23.8461  -75.4518 H         1 UNK         0.0900 
     69 H69       -84.2134   23.8062  -73.7761 H         1 UNK         0.0900 
     70 H70       -82.7128   24.8150  -72.4704 H         1 UNK         0.2959 
     71 H71       -81.9684   27.5055  -72.6696 H         1 UNK         0.1079 
     72 H72       -80.1747   25.6555  -71.0658 H         1 UNK         0.0837 
     73 H73       -81.8490   25.5806  -70.6858 H         1 UNK         0.0837 
     74 H74       -80.0424   29.8570  -70.2752 H         1 UNK         0.0685 
     75 H75       -80.6649   29.2749  -71.7920 H         1 UNK         0.0685 
     76 H76       -78.3931   26.8707  -70.1441 H         1 UNK         0.1434 
     77 H77       -75.0973   27.8379  -72.6975 H         1 UNK         0.1329 
     78 H78       -78.5553   30.3638  -72.6369 H         1 UNK         0.1335 
     79 H79       -75.7427   29.4760  -74.6230 H         1 UNK         0.0680 
     80 H80       -76.8474   30.7736  -74.2484 H         1 UNK         0.0680 
     81 H81       -74.6575   32.7754  -74.8482 H         1 UNK         0.1032 
     82 H82       -74.3256   31.2005  -75.5015 H         1 UNK         0.1032 
     83 H83       -72.3203   32.5031  -75.6207 H         1 UNK         0.0461 
     84 H84       -71.1142   32.1268  -72.4048 H         1 UNK         0.3453 
     85 H85       -71.2125   33.8179  -71.9784 H         1 UNK         0.3453 
     86 H86       -72.3208   30.1112  -74.0542 H         1 UNK         0.2984 
     87 H87       -68.9938   29.3063  -75.1251 H         1 UNK         0.0554 
     88 H88       -68.5980   30.2603  -72.8264 H         1 UNK         0.0847 
     89 H89       -68.6711   28.5077  -72.7992 H         1 UNK         0.0847 
     90 H90       -70.0499   29.4542  -72.2441 H         1 UNK         0.0847 
     91 H91       -71.7362   28.4836  -74.6430 H         1 UNK         0.3141 
     92 H92       -71.0768   25.1254  -75.5107 H         1 UNK         0.0743 
     93 H93       -71.2760   25.2477  -73.0025 H         1 UNK         0.0784 
     94 H94       -72.7343   24.6811  -73.7918 H         1 UNK         0.0784 
     95 H95       -72.6470   26.3332  -73.1760 H         1 UNK         0.0784 
     96 H96       -72.7223   25.8396  -76.7736 H         1 UNK         0.3213 
     97 H97       -75.2922   28.2562  -76.5558 H         1 UNK         0.0855 
     98 H98       -73.1099   27.7554  -78.6444 H         1 UNK         0.0814 
     99 H99       -73.4889   29.2957  -77.8917 H         1 UNK         0.0814 
    100 H100      -74.6695   28.5229  -78.9376 H         1 UNK         0.0814 
    101 H101      -76.1847   26.3329  -77.0774 H         1 UNK         0.3105 
    102 H102      -76.5119   24.3915  -78.6259 H         1 UNK         0.0547 
    103 H103      -75.7988   21.9924  -78.6370 H         1 UNK         0.0837 
    104 H104      -74.2075   22.4530  -78.0341 H         1 UNK         0.0837 
    105 H105      -74.7377   22.9914  -79.6177 H         1 UNK         0.0837 
    106 H106      -77.2481   24.0638  -76.5648 H         1 UNK         0.3020 
    107 H107      -76.1086   22.5328  -73.6878 H         1 UNK         0.1245 
    108 H108      -76.5223   25.5676  -73.7925 H         1 UNK         0.0781 
    109 H109      -75.0094   24.8290  -73.3239 H         1 UNK         0.0781 
    110 H110      -74.8920   26.0271  -71.0953 H         1 UNK         0.0836 
    111 H111      -76.0531   25.8969  -69.7984 H         1 UNK         0.0836 
    112 H112      -78.4284   24.1498  -74.2286 H         1 UNK         0.3022 
    113 H113      -80.3212   21.5005  -75.7482 H         1 UNK         0.0747 
    114 H114      -81.8904   22.3304  -74.0101 H         1 UNK         0.0793 
    115 H115      -80.6233   21.3537  -73.2894 H         1 UNK         0.0793 
    116 H116      -80.5625   23.1020  -73.1424 H         1 UNK         0.0793 
    117 H117      -80.5222   24.4004  -75.2759 H         1 UNK         0.3047 
    118 H118      -79.7570   25.3007  -78.5806 H         1 UNK         0.0822 
    119 H119      -82.0731   26.1992  -78.7635 H         1 UNK         0.0807 
    120 H120      -82.6272   25.0754  -77.5239 H         1 UNK         0.0807 
    121 H121      -82.0454   24.4700  -79.0673 H         1 UNK         0.0807 
    122 H122      -81.0660   26.5906  -76.3117 H         1 UNK         0.2946 
    123 H123      -78.0404   27.6106  -74.7678 H         1 UNK         0.1144 
    124 H124      -78.9592   29.9199  -75.1439 H         1 UNK         0.0793 
    125 H125      -79.9354   29.3177  -76.4799 H         1 UNK         0.0793 
    126 H126      -78.1802   29.2970  -76.5890 H         1 UNK         0.0793 
    127 H127      -80.7172   28.3738  -74.2498 H         1 UNK         0.2896 
@<TRIPOS>BOND
     1    1    2 1    
     2    1   67 1    
     3    1   68 1    
     4    1   69 1    
     5    2    3 2    
     6    2    4 am   BACKBONE|DICT|INTERRES
     7    4    5 1    
     8    4   70 1    
     9    5    6 1    
    10    5   65 1    
    11    5   71 1    
    12    6    7 1    
    13    6   72 1    
    14    6   73 1    
    15    7    8 1    
    16    8    9 1    
    17    8   74 1    
    18    8   75 1    
    19    9   10 ar   
    20    9   14 ar   
    21   10   11 ar   
    22   10   76 1    
    23   11   12 ar   
    24   11   48 1    
    25   12   13 ar   
    26   12   77 1    
    27   13   14 ar   
    28   13   15 1    
    29   14   78 1    
    30   15   16 1    
    31   15   79 1    
    32   15   80 1    
    33   16   17 1    
    34   17   18 1    
    35   17   81 1    
    36   17   82 1    
    37   18   19 1    
    38   18   22 1    
    39   18   83 1    
    40   19   20 am   BACKBONE|DICT|INTERRES
    41   19   21 2    
    42   20   84 1    
    43   20   85 1    
    44   22   23 am   BACKBONE|DICT|INTERRES
    45   22   86 1    
    46   23   24 2    
    47   23   25 1    
    48   25   26 1    
    49   25   27 1    
    50   25   87 1    
    51   26   88 1    
    52   26   89 1    
    53   26   90 1    
    54   27   28 am   BACKBONE|DICT|INTERRES
    55   27   91 1    
    56   28   29 2    
    57   28   30 1    
    58   30   31 1    
    59   30   32 1    
    60   30   92 1    
    61   31   93 1    
    62   31   94 1    
    63   31   95 1    
    64   32   33 am   BACKBONE|DICT|INTERRES
    65   32   96 1    
    66   33   34 2    
    67   33   35 1    
    68   35   36 1    
    69   35   37 1    
    70   35   97 1    
    71   36   98 1    
    72   36   99 1    
    73   36  100 1    
    74   37   38 am   BACKBONE|DICT|INTERRES
    75   37  101 1    
    76   38   39 2    
    77   38   40 1    
    78   40   41 1    
    79   40   42 1    
    80   40  102 1    
    81   41  103 1    
    82   41  104 1    
    83   41  105 1    
    84   42   43 am   BACKBONE|DICT|INTERRES
    85   42  106 1    
    86   43   44 2    
    87   43   45 1    
    88   45   46 1    
    89   45   49 1    
    90   45  107 1    
    91   46   47 1    
    92   46  108 1    
    93   46  109 1    
    94   47   48 1    
    95   48  110 1    
    96   48  111 1    
    97   49   50 am   BACKBONE|DICT|INTERRES
    98   49  112 1    
    99   50   51 2    
   100   50   52 1    
   101   52   53 1    
   102   52   54 1    
   103   52  113 1    
   104   53  114 1    
   105   53  115 1    
   106   53  116 1    
   107   54   55 am   BACKBONE|DICT|INTERRES
   108   54  117 1    
   109   55   56 2    
   110   55   57 1    
   111   57   58 1    
   112   57   59 1    
   113   57  118 1    
   114   58  119 1    
   115   58  120 1    
   116   58  121 1    
   117   59   60 am   BACKBONE|DICT|INTERRES
   118   59  122 1    
   119   60   61 2    
   120   60   62 1    
   121   62   63 1    
   122   62   64 1    
   123   62  123 1    
   124   63  124 1    
   125   63  125 1    
   126   63  126 1    
   127   64   65 am   BACKBONE|DICT|INTERRES
   128   64  127 1    
   129   65   66 2    
@<TRIPOS>SUBSTRUCTURE
     1 UNK         1 GROUP             0       ****    0 ROOT    
