@<TRIPOS>MOLECULE
3R135
127   129    1
SMALL
USER_CHARGES


@<TRIPOS>ATOM
      1 CA        -77.8082   20.6668  -73.7456 C.3       0 UNK        -0.1998 
      2 C         -78.8714   21.2478  -72.8258 C.2       0 UNK         0.4909 
      3 O         -79.8093   20.5449  -72.4506 O.2       0 UNK        -0.5240 
      4 N         -78.7449   22.5318  -72.4678 N.am      1 UNK        -0.4739 
      5 CA        -79.6138   23.2741  -71.5422 C.3       1 UNK         0.0864 
      6 C6        -78.8466   24.4623  -70.9038 C.3       11 UNK        -0.0881 
      7 S7        -78.1940   25.6783  -72.1083 S.3       11 UNK        -0.2682 
      8 C8        -78.9894   27.2006  -71.5083 C.3       11 UNK         0.0289 
      9 C9        -78.3838   28.4405  -72.1473 C.ar      11 UNK        -0.0687 
     10 C10       -78.9717   29.0158  -73.2769 C.ar      11 UNK        -0.0823 
     11 C11       -78.4295   30.1714  -73.8500 C.ar      11 UNK        -0.0830 
     12 C12       -77.2856   30.7459  -73.2873 C.ar      11 UNK        -0.1021 
     13 C13       -76.6956   30.1888  -72.1482 C.ar      11 UNK        -0.0753 
     14 C14       -77.2512   29.0356  -71.5837 C.ar      11 UNK        -0.0933 
     15 C15       -75.4845   30.8578  -71.5096 C.3       11 UNK         0.0166 
     16 S16       -74.0636   29.7295  -71.4094 S.3       11 UNK        -0.2615 
     17 C17       -72.6797   30.8960  -71.1752 C.3       11 UNK        -0.0865 
     18 CA        -72.0634   31.3670  -72.5190 C.3       10 UNK         0.0862 
     19 C         -70.8540   32.3081  -72.2706 C.2       10 UNK         0.5551 
     20 N         -71.0928   33.6080  -72.1646 N.am      10 UNK        -0.7319 
     21 O         -69.7146   31.8680  -72.1272 O.2       10 UNK        -0.5018 
     22 N         -71.7378   30.2280  -73.3864 N.am      10 UNK        -0.4509 
     23 C         -71.4050   30.2901  -74.6780 C.2       10 UNK         0.4899 
     24 O         -71.2903   31.3430  -75.3063 O.2       10 UNK        -0.4839 
     25 CA        -71.2045   28.9553  -75.4178 C.3       9 UNK         0.0222 
     26 CB        -69.7401   28.4827  -75.3389 C.3       9 UNK        -0.1966 
     27 N         -72.1453   27.8925  -75.0309 N.am      9 UNK        -0.4218 
     28 C         -72.2213   27.1886  -73.8904 C.2       9 UNK         0.5020 
     29 O         -71.4913   27.3770  -72.9164 O.2       9 UNK        -0.5274 
     30 CA        -73.2943   26.0854  -73.8196 C.3       8 UNK         0.0270 
     31 CB        -74.6090   26.6297  -73.2411 C.3       8 UNK        -0.1976 
     32 N         -73.5680   25.4627  -75.1155 N.am      8 UNK        -0.4313 
     33 C         -72.7066   24.6941  -75.7969 C.2       8 UNK         0.5041 
     34 O         -71.5873   24.3821  -75.3887 O.2       8 UNK        -0.5577 
     35 CA        -73.1714   24.2029  -77.1753 C.3       7 UNK         0.0284 
     36 CB        -74.0721   22.9646  -77.0373 C.3       7 UNK        -0.1958 
     37 N         -73.8814   25.2589  -77.9000 N.am      7 UNK        -0.4454 
     38 C         -73.2736   26.2448  -78.5750 C.2       7 UNK         0.5089 
     39 O         -72.0537   26.3262  -78.7189 O.2       7 UNK        -0.5125 
     40 CA        -74.1726   27.3313  -79.1923 C.3       6 UNK         0.0408 
     41 CB        -74.5323   26.9692  -80.6418 C.3       6 UNK        -0.1791 
     42 N         -75.4022   27.5747  -78.4334 N.am      6 UNK        -0.4762 
     43 C         -75.4500   28.1441  -77.2197 C.2       6 UNK         0.5007 
     44 O         -74.4550   28.5255  -76.6053 O.2       6 UNK        -0.5032 
     45 CA        -76.8428   28.2670  -76.5714 C.3       5 UNK         0.0783 
     46 C46       -77.5364   29.5726  -77.0381 C.3       11 UNK        -0.0857 
     47 S47       -79.2661   29.7234  -76.4721 S.3       11 UNK        -0.2512 
     48 C48       -79.1107   30.8344  -75.0403 C.3       11 UNK         0.0225 
     49 N         -77.6805   27.0815  -76.7893 N.am      5 UNK        -0.4615 
     50 C         -77.3812   25.8258  -76.4380 C.2       4 UNK         0.5053 
     51 O         -76.2793   25.4845  -76.0051 O.2       4 UNK        -0.5105 
     52 CA        -78.5106   24.7904  -76.5863 C.3       4 UNK         0.0263 
     53 CB        -78.1136   23.4038  -76.0515 C.3       4 UNK        -0.1981 
     54 N         -79.7232   25.2299  -75.8929 N.am      4 UNK        -0.4224 
     55 C         -80.6556   26.0477  -76.4006 C.2       3 UNK         0.4895 
     56 O         -80.5722   26.5467  -77.5242 O.2       3 UNK        -0.5091 
     57 CA        -81.8596   26.3769  -75.4935 C.3       3 UNK         0.0250 
     58 CB        -83.0900   26.8660  -76.2862 C.3       3 UNK        -0.1996 
     59 N         -82.2198   25.2785  -74.5858 N.am      3 UNK        -0.4254 
     60 C         -82.6127   24.0380  -74.9133 C.2       2 UNK         0.5004 
     61 O         -82.7740   23.6483  -76.0711 O.2       2 UNK        -0.5226 
     62 CA        -82.8101   23.0616  -73.7362 C.3       2 UNK         0.0269 
     63 CB        -83.3718   21.6988  -74.1835 C.3       2 UNK        -0.1926 
     64 N         -81.5569   22.8350  -73.0096 N.am      2 UNK        -0.4687 
     65 C         -80.9820   23.6820  -72.1464 C.2       1 UNK         0.5165 
     66 O         -81.4960   24.7614  -71.8441 O.2       1 UNK        -0.5079 
     67 H67       -78.2369   20.4442  -74.7221 H         1 UNK         0.0900 
     68 H68       -77.4166   19.7405  -73.3267 H         1 UNK         0.0900 
     69 H69       -76.9719   21.3508  -73.8864 H         1 UNK         0.0900 
     70 H70       -77.9646   23.0678  -72.8209 H         1 UNK         0.2959 
     71 H71       -79.8655   22.5937  -70.7254 H         1 UNK         0.1079 
     72 H72       -79.4717   24.9623  -70.1615 H         1 UNK         0.0837 
     73 H73       -77.9957   24.0770  -70.3397 H         1 UNK         0.0837 
     74 H74       -78.8815   27.2655  -70.4245 H         1 UNK         0.0685 
     75 H75       -80.0606   27.1516  -71.7092 H         1 UNK         0.0685 
     76 H76       -79.8591   28.5719  -73.7051 H         1 UNK         0.1434 
     77 H77       -76.8686   31.6447  -73.7208 H         1 UNK         0.1329 
     78 H78       -76.8000   28.6012  -70.7021 H         1 UNK         0.1335 
     79 H79       -75.7448   31.1997  -70.5071 H         1 UNK         0.0680 
     80 H80       -75.1965   31.7438  -72.0774 H         1 UNK         0.0680 
     81 H81       -71.9234   30.3946  -70.5680 H         1 UNK         0.1032 
     82 H82       -73.0227   31.7485  -70.5857 H         1 UNK         0.1032 
     83 H83       -72.8259   31.9435  -73.0469 H         1 UNK         0.0461 
     84 H84       -70.3229   34.2342  -71.9867 H         1 UNK         0.3453 
     85 H85       -72.0242   33.9789  -72.2714 H         1 UNK         0.3453 
     86 H86       -71.7702   29.3102  -72.9543 H         1 UNK         0.2984 
     87 H87       -71.4236   29.1509  -76.4688 H         1 UNK         0.0554 
     88 H88       -69.5883   27.5671  -75.9106 H         1 UNK         0.0847 
     89 H89       -69.4253   28.2945  -74.3121 H         1 UNK         0.0847 
     90 H90       -69.0674   29.2373  -75.7482 H         1 UNK         0.0847 
     91 H91       -72.8936   27.7469  -75.7029 H         1 UNK         0.3141 
     92 H92       -72.9250   25.3055  -73.1506 H         1 UNK         0.0743 
     93 H93       -75.3881   25.8677  -73.2387 H         1 UNK         0.0784 
     94 H94       -74.4740   26.9506  -72.2085 H         1 UNK         0.0784 
     95 H95       -74.9808   27.4855  -73.8058 H         1 UNK         0.0784 
     96 H96       -74.5017   25.5997  -75.4989 H         1 UNK         0.3213 
     97 H97       -72.2869   23.9138  -77.7477 H         1 UNK         0.0855 
     98 H98       -74.9467   23.1653  -76.4190 H         1 UNK         0.0814 
     99 H99       -73.5289   22.1427  -76.5693 H         1 UNK         0.0814 
    100 H100      -74.4185   22.6127  -78.0091 H         1 UNK         0.0814 
    101 H101      -74.8844   25.3013  -77.7789 H         1 UNK         0.3105 
    102 H102      -73.5992   28.2608  -79.2081 H         1 UNK         0.0547 
    103 H103      -73.6328   26.8084  -81.2377 H         1 UNK         0.0837 
    104 H104      -75.1257   26.0556  -80.6964 H         1 UNK         0.0837 
    105 H105      -75.0976   27.7675  -81.1227 H         1 UNK         0.0837 
    106 H106      -76.2708   27.2818  -78.8583 H         1 UNK         0.3020 
    107 H107      -76.6841   28.3385  -75.4928 H         1 UNK         0.1245 
    108 H108      -77.5555   29.6258  -78.1286 H         1 UNK         0.0781 
    109 H109      -76.9692   30.4441  -76.7052 H         1 UNK         0.0781 
    110 H110      -80.1093   31.1509  -74.7365 H         1 UNK         0.0836 
    111 H111      -78.5850   31.7409  -75.3443 H         1 UNK         0.0836 
    112 H112      -78.6178   27.2619  -77.1326 H         1 UNK         0.3022 
    113 H113      -78.7245   24.6879  -77.6522 H         1 UNK         0.0747 
    114 H114      -77.3008   22.9784  -76.6399 H         1 UNK         0.0793 
    115 H115      -77.7764   23.4584  -75.0170 H         1 UNK         0.0793 
    116 H116      -78.9472   22.7029  -76.1010 H         1 UNK         0.0793 
    117 H117      -79.8431   24.9024  -74.9461 H         1 UNK         0.3047 
    118 H118      -81.5347   27.2007  -74.8570 H         1 UNK         0.0822 
    119 H119      -82.8565   27.7692  -76.8517 H         1 UNK         0.0807 
    120 H120      -83.9201   27.1073  -75.6224 H         1 UNK         0.0807 
    121 H121      -83.4361   26.1174  -76.9995 H         1 UNK         0.0807 
    122 H122      -82.0778   25.4576  -73.5951 H         1 UNK         0.2946 
    123 H123      -83.5363   23.5155  -73.0576 H         1 UNK         0.1144 
    124 H124      -84.3187   21.8200  -74.7114 H         1 UNK         0.0793 
    125 H125      -83.5599   21.0481  -73.3292 H         1 UNK         0.0793 
    126 H126      -82.6864   21.1797  -74.8549 H         1 UNK         0.0793 
    127 H127      -81.0829   21.9533  -73.1734 H         1 UNK         0.2896 
@<TRIPOS>BOND
     1    1    2 1    
     2    1   67 1    
     3    1   68 1    
     4    1   69 1    
     5    2    3 2    
     6    2    4 am   BACKBONE|DICT|INTERRES
     7    4    5 1    
     8    4   70 1    
     9    5    6 1    
    10    5   65 1    
    11    5   71 1    
    12    6    7 1    
    13    6   72 1    
    14    6   73 1    
    15    7    8 1    
    16    8    9 1    
    17    8   74 1    
    18    8   75 1    
    19    9   10 ar   
    20    9   14 ar   
    21   10   11 ar   
    22   10   76 1    
    23   11   12 ar   
    24   11   48 1    
    25   12   13 ar   
    26   12   77 1    
    27   13   14 ar   
    28   13   15 1    
    29   14   78 1    
    30   15   16 1    
    31   15   79 1    
    32   15   80 1    
    33   16   17 1    
    34   17   18 1    
    35   17   81 1    
    36   17   82 1    
    37   18   19 1    
    38   18   22 1    
    39   18   83 1    
    40   19   20 am   BACKBONE|DICT|INTERRES
    41   19   21 2    
    42   20   84 1    
    43   20   85 1    
    44   22   23 am   BACKBONE|DICT|INTERRES
    45   22   86 1    
    46   23   24 2    
    47   23   25 1    
    48   25   26 1    
    49   25   27 1    
    50   25   87 1    
    51   26   88 1    
    52   26   89 1    
    53   26   90 1    
    54   27   28 am   BACKBONE|DICT|INTERRES
    55   27   91 1    
    56   28   29 2    
    57   28   30 1    
    58   30   31 1    
    59   30   32 1    
    60   30   92 1    
    61   31   93 1    
    62   31   94 1    
    63   31   95 1    
    64   32   33 am   BACKBONE|DICT|INTERRES
    65   32   96 1    
    66   33   34 2    
    67   33   35 1    
    68   35   36 1    
    69   35   37 1    
    70   35   97 1    
    71   36   98 1    
    72   36   99 1    
    73   36  100 1    
    74   37   38 am   BACKBONE|DICT|INTERRES
    75   37  101 1    
    76   38   39 2    
    77   38   40 1    
    78   40   41 1    
    79   40   42 1    
    80   40  102 1    
    81   41  103 1    
    82   41  104 1    
    83   41  105 1    
    84   42   43 am   BACKBONE|DICT|INTERRES
    85   42  106 1    
    86   43   44 2    
    87   43   45 1    
    88   45   46 1    
    89   45   49 1    
    90   45  107 1    
    91   46   47 1    
    92   46  108 1    
    93   46  109 1    
    94   47   48 1    
    95   48  110 1    
    96   48  111 1    
    97   49   50 am   BACKBONE|DICT|INTERRES
    98   49  112 1    
    99   50   51 2    
   100   50   52 1    
   101   52   53 1    
   102   52   54 1    
   103   52  113 1    
   104   53  114 1    
   105   53  115 1    
   106   53  116 1    
   107   54   55 am   BACKBONE|DICT|INTERRES
   108   54  117 1    
   109   55   56 2    
   110   55   57 1    
   111   57   58 1    
   112   57   59 1    
   113   57  118 1    
   114   58  119 1    
   115   58  120 1    
   116   58  121 1    
   117   59   60 am   BACKBONE|DICT|INTERRES
   118   59  122 1    
   119   60   61 2    
   120   60   62 1    
   121   62   63 1    
   122   62   64 1    
   123   62  123 1    
   124   63  124 1    
   125   63  125 1    
   126   63  126 1    
   127   64   65 am   BACKBONE|DICT|INTERRES
   128   64  127 1    
   129   65   66 2    
@<TRIPOS>SUBSTRUCTURE
     1 UNK         1 GROUP             0       ****    0 ROOT    
