@<TRIPOS>MOLECULE
3R135
127   129    1
SMALL
USER_CHARGES


@<TRIPOS>ATOM
      1 CA        -83.6051   27.0748  -72.7867 C.3       0 UNK        -0.1998 
      2 C         -82.2451   26.9325  -73.4521 C.2       0 UNK         0.4909 
      3 O         -81.8477   27.8021  -74.2279 O.2       0 UNK        -0.5240 
      4 N         -81.5279   25.8456  -73.1555 N.am      1 UNK        -0.4739 
      5 CA        -80.2117   25.5307  -73.7057 C.3       1 UNK         0.0864 
      6 C6        -79.0786   26.4145  -73.1218 C.3       11 UNK        -0.0881 
      7 S7        -78.8684   26.2708  -71.3134 S.3       11 UNK        -0.2682 
      8 C8        -79.4207   27.9123  -70.7606 C.3       11 UNK         0.0289 
      9 C9        -78.3832   28.9823  -71.0658 C.ar      11 UNK        -0.0687 
     10 C10       -78.5550   29.8550  -72.1450 C.ar      11 UNK        -0.0823 
     11 C11       -77.6097   30.8513  -72.4004 C.ar      11 UNK        -0.0830 
     12 C12       -76.4997   30.9801  -71.5626 C.ar      11 UNK        -0.1021 
     13 C13       -76.2986   30.0985  -70.4931 C.ar      11 UNK        -0.0753 
     14 C14       -77.2529   29.1058  -70.2521 C.ar      11 UNK        -0.0933 
     15 C15       -75.0999   30.2025  -69.5483 C.3       11 UNK         0.0166 
     16 S16       -73.6999   31.2108  -70.1496 S.3       11 UNK        -0.2615 
     17 C17       -72.8467   30.0819  -71.3092 C.3       11 UNK        -0.0865 
     18 CA        -73.1185   30.3384  -72.8265 C.3       10 UNK         0.0862 
     19 C         -72.5061   31.6530  -73.4100 C.2       10 UNK         0.5551 
     20 N         -72.3826   32.7111  -72.6225 N.am      10 UNK        -0.7319 
     21 O         -72.1789   31.7411  -74.5918 O.2       10 UNK        -0.5018 
     22 N         -72.7822   29.1598  -73.6411 N.am      10 UNK        -0.4509 
     23 C         -71.5549   28.6382  -73.7860 C.2       10 UNK         0.4899 
     24 O         -70.5617   29.0352  -73.1739 O.2       10 UNK        -0.4839 
     25 CA        -71.4152   27.4862  -74.7974 C.3       9 UNK         0.0222 
     26 CB        -70.0745   26.7300  -74.6844 C.3       9 UNK        -0.1966 
     27 N         -72.5481   26.5594  -74.7614 N.am      9 UNK        -0.4218 
     28 C         -72.9439   25.7660  -73.7549 C.2       9 UNK         0.5020 
     29 O         -72.3645   25.6824  -72.6713 O.2       9 UNK        -0.5274 
     30 CA        -74.2131   24.9215  -73.9908 C.3       8 UNK         0.0270 
     31 CB        -75.3864   25.4860  -73.1749 C.3       8 UNK        -0.1976 
     32 N         -74.6061   24.8389  -75.4019 N.am      8 UNK        -0.4313 
     33 C         -73.9409   24.1513  -76.3423 C.2       8 UNK         0.5041 
     34 O         -72.9868   23.4097  -76.1055 O.2       8 UNK        -0.5577 
     35 CA        -74.3676   24.3881  -77.8009 C.3       7 UNK         0.0284 
     36 CB        -75.5415   23.4796  -78.1927 C.3       7 UNK        -0.1958 
     37 N         -74.7161   25.7907  -78.0509 N.am      7 UNK        -0.4454 
     38 C         -73.8227   26.7864  -78.1427 C.2       7 UNK         0.5089 
     39 O         -72.6066   26.6232  -78.0609 O.2       7 UNK        -0.5125 
     40 CA        -74.3760   28.2098  -78.3286 C.3       6 UNK         0.0408 
     41 CB        -74.5316   28.5338  -79.8224 C.3       6 UNK        -0.1791 
     42 N         -75.6545   28.4266  -77.6468 N.am      6 UNK        -0.4762 
     43 C         -75.8110   28.4716  -76.3147 C.2       6 UNK         0.5007 
     44 O         -74.8868   28.3337  -75.5118 O.2       6 UNK        -0.5032 
     45 CA        -77.2590   28.6354  -75.8004 C.3       5 UNK         0.0783 
     46 C46       -77.7488   30.1067  -75.8527 C.3       11 UNK        -0.0857 
     47 S47       -76.7131   31.3249  -74.9681 S.3       11 UNK        -0.2512 
     48 C48       -77.7769   31.8058  -73.5708 C.3       11 UNK         0.0225 
     49 N         -78.1970   27.7739  -76.5363 N.am      5 UNK        -0.4615 
     50 C         -78.1276   26.4426  -76.6512 C.2       4 UNK         0.5053 
     51 O         -77.2791   25.7426  -76.0907 O.2       4 UNK        -0.5105 
     52 CA        -79.1666   25.7895  -77.5712 C.3       4 UNK         0.0263 
     53 CB        -78.8296   26.0633  -79.0470 C.3       4 UNK        -0.1981 
     54 N         -79.1639   24.3458  -77.3496 N.am      4 UNK        -0.4224 
     55 C         -80.2337   23.5782  -77.1142 C.2       3 UNK         0.4895 
     56 O         -81.3896   24.0000  -77.1072 O.2       3 UNK        -0.5091 
     57 CA        -79.9757   22.0908  -76.8013 C.3       3 UNK         0.0250 
     58 CB        -80.5398   21.2098  -77.9285 C.3       3 UNK        -0.1996 
     59 N         -78.5491   21.7748  -76.6341 N.am      3 UNK        -0.4254 
     60 C         -77.8050   21.7953  -75.5155 C.2       2 UNK         0.5004 
     61 O         -76.5997   21.5597  -75.5624 O.2       2 UNK        -0.5226 
     62 CA        -78.4440   22.1454  -74.1579 C.3       2 UNK         0.0269 
     63 CB        -77.5054   21.8688  -72.9655 C.3       2 UNK        -0.1926 
     64 N         -78.8345   23.5536  -74.1420 N.am      2 UNK        -0.4687 
     65 C         -79.9443   24.0227  -73.5586 C.2       1 UNK         0.5165 
     66 O         -80.7460   23.3142  -72.9424 O.2       1 UNK        -0.5079 
     67 H67       -83.8351   26.2242  -72.1441 H         1 UNK         0.0900 
     68 H68       -84.3866   27.1506  -73.5432 H         1 UNK         0.0900 
     69 H69       -83.6305   27.9782  -72.1767 H         1 UNK         0.0900 
     70 H70       -81.8955   25.1240  -72.5470 H         1 UNK         0.2959 
     71 H71       -80.2712   25.7150  -74.7789 H         1 UNK         0.1079 
     72 H72       -79.2652   27.4530  -73.3896 H         1 UNK         0.0837 
     73 H73       -78.1260   26.1777  -73.5901 H         1 UNK         0.0837 
     74 H74       -80.3797   28.1531  -71.2219 H         1 UNK         0.0685 
     75 H75       -79.6003   27.8788  -69.6851 H         1 UNK         0.0685 
     76 H76       -79.4252   29.7630  -72.7808 H         1 UNK         0.1434 
     77 H77       -75.7930   31.7725  -71.7618 H         1 UNK         0.1329 
     78 H78       -77.1215   28.4263  -69.4208 H         1 UNK         0.1335 
     79 H79       -74.7363   29.2052  -69.2966 H         1 UNK         0.0680 
     80 H80       -75.4499   30.6433  -68.6141 H         1 UNK         0.0680 
     81 H81       -71.7768   30.1406  -71.1045 H         1 UNK         0.1032 
     82 H82       -73.1314   29.0592  -71.0578 H         1 UNK         0.1032 
     83 H83       -74.1933   30.4461  -72.9599 H         1 UNK         0.0461 
     84 H84       -72.6704   32.6538  -71.6564 H         1 UNK         0.3453 
     85 H85       -72.0047   33.5685  -72.9925 H         1 UNK         0.3453 
     86 H86       -73.5302   28.8064  -74.2325 H         1 UNK         0.2984 
     87 H87       -71.4438   27.9513  -75.7835 H         1 UNK         0.0554 
     88 H88       -70.0058   25.9340  -75.4259 H         1 UNK         0.0847 
     89 H89       -69.9415   26.2840  -73.6986 H         1 UNK         0.0847 
     90 H90       -69.2320   27.4016  -74.8524 H         1 UNK         0.0847 
     91 H91       -73.1337   26.5716  -75.5847 H         1 UNK         0.3141 
     92 H92       -74.0034   23.9105  -73.6358 H         1 UNK         0.0743 
     93 H93       -76.2618   24.8439  -73.2528 H         1 UNK         0.0784 
     94 H94       -75.1335   25.5546  -72.1160 H         1 UNK         0.0784 
     95 H95       -75.6653   26.4865  -73.5071 H         1 UNK         0.0784 
     96 H96       -75.4299   25.3662  -75.6781 H         1 UNK         0.3213 
     97 H97       -73.5187   24.1301  -78.4383 H         1 UNK         0.0855 
     98 H98       -75.2812   22.4296  -78.0513 H         1 UNK         0.0814 
     99 H99       -75.8156   23.6088  -79.2397 H         1 UNK         0.0814 
    100 H100      -76.4201   23.6782  -77.5837 H         1 UNK         0.0814 
    101 H101      -75.6962   26.0226  -78.0930 H         1 UNK         0.3105 
    102 H102      -73.6475   28.9047  -77.9046 H         1 UNK         0.0547 
    103 H103      -73.5853   28.4034  -80.3496 H         1 UNK         0.0837 
    104 H104      -75.2645   27.8862  -80.3051 H         1 UNK         0.0837 
    105 H105      -74.8435   29.5672  -79.9744 H         1 UNK         0.0837 
    106 H106      -76.4682   28.5530  -78.2310 H         1 UNK         0.3020 
    107 H107      -77.2593   28.3139  -74.7568 H         1 UNK         0.1245 
    108 H108      -78.7665   30.1603  -75.4637 H         1 UNK         0.0781 
    109 H109      -77.8176   30.4401  -76.8898 H         1 UNK         0.0781 
    110 H110      -78.8197   31.8690  -73.8851 H         1 UNK         0.0836 
    111 H111      -77.5002   32.8128  -73.2546 H         1 UNK         0.0836 
    112 H112      -78.9391   28.2555  -77.0238 H         1 UNK         0.3022 
    113 H113      -80.1451   26.2130  -77.3355 H         1 UNK         0.0747 
    114 H114      -79.5607   25.5966  -79.7074 H         1 UNK         0.0793 
    115 H115      -78.8370   27.1312  -79.2677 H         1 UNK         0.0793 
    116 H116      -77.8466   25.6776  -79.3191 H         1 UNK         0.0793 
    117 H117      -78.2493   23.9274  -77.2641 H         1 UNK         0.3047 
    118 H118      -80.5257   21.8506  -75.8908 H         1 UNK         0.0822 
    119 H119      -80.0532   21.4117  -78.8837 H         1 UNK         0.0807 
    120 H120      -81.6082   21.3834  -78.0650 H         1 UNK         0.0807 
    121 H121      -80.4137   20.1504  -77.7048 H         1 UNK         0.0807 
    122 H122      -78.0761   21.5092  -77.4859 H         1 UNK         0.2946 
    123 H123      -79.3170   21.5009  -74.0374 H         1 UNK         0.1144 
    124 H124      -77.2052   20.8205  -72.9408 H         1 UNK         0.0793 
    125 H125      -76.5953   22.4670  -73.0172 H         1 UNK         0.0793 
    126 H126      -77.9950   22.0874  -72.0164 H         1 UNK         0.0793 
    127 H127      -78.2218   24.1880  -74.6404 H         1 UNK         0.2896 
@<TRIPOS>BOND
     1    1    2 1    
     2    1   67 1    
     3    1   68 1    
     4    1   69 1    
     5    2    3 2    
     6    2    4 am   BACKBONE|DICT|INTERRES
     7    4    5 1    
     8    4   70 1    
     9    5    6 1    
    10    5   65 1    
    11    5   71 1    
    12    6    7 1    
    13    6   72 1    
    14    6   73 1    
    15    7    8 1    
    16    8    9 1    
    17    8   74 1    
    18    8   75 1    
    19    9   10 ar   
    20    9   14 ar   
    21   10   11 ar   
    22   10   76 1    
    23   11   12 ar   
    24   11   48 1    
    25   12   13 ar   
    26   12   77 1    
    27   13   14 ar   
    28   13   15 1    
    29   14   78 1    
    30   15   16 1    
    31   15   79 1    
    32   15   80 1    
    33   16   17 1    
    34   17   18 1    
    35   17   81 1    
    36   17   82 1    
    37   18   19 1    
    38   18   22 1    
    39   18   83 1    
    40   19   20 am   BACKBONE|DICT|INTERRES
    41   19   21 2    
    42   20   84 1    
    43   20   85 1    
    44   22   23 am   BACKBONE|DICT|INTERRES
    45   22   86 1    
    46   23   24 2    
    47   23   25 1    
    48   25   26 1    
    49   25   27 1    
    50   25   87 1    
    51   26   88 1    
    52   26   89 1    
    53   26   90 1    
    54   27   28 am   BACKBONE|DICT|INTERRES
    55   27   91 1    
    56   28   29 2    
    57   28   30 1    
    58   30   31 1    
    59   30   32 1    
    60   30   92 1    
    61   31   93 1    
    62   31   94 1    
    63   31   95 1    
    64   32   33 am   BACKBONE|DICT|INTERRES
    65   32   96 1    
    66   33   34 2    
    67   33   35 1    
    68   35   36 1    
    69   35   37 1    
    70   35   97 1    
    71   36   98 1    
    72   36   99 1    
    73   36  100 1    
    74   37   38 am   BACKBONE|DICT|INTERRES
    75   37  101 1    
    76   38   39 2    
    77   38   40 1    
    78   40   41 1    
    79   40   42 1    
    80   40  102 1    
    81   41  103 1    
    82   41  104 1    
    83   41  105 1    
    84   42   43 am   BACKBONE|DICT|INTERRES
    85   42  106 1    
    86   43   44 2    
    87   43   45 1    
    88   45   46 1    
    89   45   49 1    
    90   45  107 1    
    91   46   47 1    
    92   46  108 1    
    93   46  109 1    
    94   47   48 1    
    95   48  110 1    
    96   48  111 1    
    97   49   50 am   BACKBONE|DICT|INTERRES
    98   49  112 1    
    99   50   51 2    
   100   50   52 1    
   101   52   53 1    
   102   52   54 1    
   103   52  113 1    
   104   53  114 1    
   105   53  115 1    
   106   53  116 1    
   107   54   55 am   BACKBONE|DICT|INTERRES
   108   54  117 1    
   109   55   56 2    
   110   55   57 1    
   111   57   58 1    
   112   57   59 1    
   113   57  118 1    
   114   58  119 1    
   115   58  120 1    
   116   58  121 1    
   117   59   60 am   BACKBONE|DICT|INTERRES
   118   59  122 1    
   119   60   61 2    
   120   60   62 1    
   121   62   63 1    
   122   62   64 1    
   123   62  123 1    
   124   63  124 1    
   125   63  125 1    
   126   63  126 1    
   127   64   65 am   BACKBONE|DICT|INTERRES
   128   64  127 1    
   129   65   66 2    
@<TRIPOS>SUBSTRUCTURE
     1 UNK         1 GROUP             0       ****    0 ROOT    
