@<TRIPOS>MOLECULE
3R135
127   129    1
SMALL
USER_CHARGES


@<TRIPOS>ATOM
      1 CA        -84.5171   23.9810  -72.0258 C.3       0 UNK        -0.1998 
      2 C         -83.2671   23.9366  -71.1490 C.2       0 UNK         0.4909 
      3 O         -83.1925   23.0971  -70.2532 O.2       0 UNK        -0.5240 
      4 N         -82.2725   24.8145  -71.3427 N.am      1 UNK        -0.4739 
      5 CA        -82.1462   25.8157  -72.4093 C.3       1 UNK         0.0864 
      6 C6        -81.0165   26.8445  -72.1210 C.3       11 UNK        -0.0881 
      7 S7        -79.4735   26.1413  -71.4278 S.3       11 UNK        -0.2682 
      8 C8        -78.8582   27.5069  -70.3855 C.3       11 UNK         0.0289 
      9 C9        -77.9929   28.4717  -71.1840 C.ar      11 UNK        -0.0687 
     10 C10       -78.5762   29.3168  -72.1307 C.ar      11 UNK        -0.0823 
     11 C11       -77.7836   30.1482  -72.9239 C.ar      11 UNK        -0.0830 
     12 C12       -76.4012   30.1777  -72.7256 C.ar      11 UNK        -0.1021 
     13 C13       -75.8060   29.3622  -71.7588 C.ar      11 UNK        -0.0753 
     14 C14       -76.6066   28.5043  -70.9966 C.ar      11 UNK        -0.0933 
     15 C15       -74.2944   29.3575  -71.5888 C.3       11 UNK         0.0166 
     16 S16       -73.6200   31.0116  -71.2346 S.3       11 UNK        -0.2615 
     17 C17       -71.8333   30.6395  -71.1828 C.3       11 UNK        -0.0865 
     18 CA        -71.0913   30.9495  -72.5115 C.3       10 UNK         0.0862 
     19 C         -69.5602   30.7255  -72.3285 C.2       10 UNK         0.5551 
     20 N         -68.9685   29.6741  -72.8857 N.am      10 UNK        -0.7319 
     21 O         -68.9013   31.5224  -71.6652 O.2       10 UNK        -0.5018 
     22 N         -71.6734   30.2162  -73.6464 N.am      10 UNK        -0.4509 
     23 C         -71.3954   30.4296  -74.9386 C.2       10 UNK         0.4899 
     24 O         -70.7307   31.3858  -75.3404 O.2       10 UNK        -0.4839 
     25 CA        -71.9439   29.4011  -75.9538 C.3       9 UNK         0.0222 
     26 CB        -70.9754   29.1802  -77.1341 C.3       9 UNK        -0.1966 
     27 N         -72.3393   28.1049  -75.3781 N.am      9 UNK        -0.4218 
     28 C         -71.5741   27.2552  -74.6722 C.2       9 UNK         0.5020 
     29 O         -70.4055   27.4838  -74.3547 O.2       9 UNK        -0.5274 
     30 CA        -72.2295   25.9448  -74.2098 C.3       8 UNK         0.0270 
     31 CB        -73.0813   26.1704  -72.9510 C.3       8 UNK        -0.1976 
     32 N         -73.0425   25.3175  -75.2537 N.am      8 UNK        -0.4313 
     33 C         -72.5263   24.6554  -76.2998 C.2       8 UNK         0.5041 
     34 O         -71.3183   24.4960  -76.4818 O.2       8 UNK        -0.5577 
     35 CA        -73.5176   24.0589  -77.3128 C.3       7 UNK         0.0284 
     36 CB        -74.1439   22.7675  -76.7642 C.3       7 UNK        -0.1958 
     37 N         -74.5689   25.0004  -77.7008 N.am      7 UNK        -0.4454 
     38 C         -74.3557   26.1153  -78.4149 C.2       7 UNK         0.5089 
     39 O         -73.2567   26.4517  -78.8558 O.2       7 UNK        -0.5125 
     40 CA        -75.5739   27.0155  -78.6783 C.3       6 UNK         0.0408 
     41 CB        -76.3404   26.5423  -79.9235 C.3       6 UNK        -0.1791 
     42 N         -76.4897   27.0896  -77.5393 N.am      6 UNK        -0.4762 
     43 C         -76.1909   27.6373  -76.3520 C.2       6 UNK         0.5007 
     44 O         -75.0948   28.1240  -76.0723 O.2       6 UNK        -0.5032 
     45 CA        -77.2960   27.5740  -75.2798 C.3       5 UNK         0.0783 
     46 C46       -78.4598   28.5598  -75.5819 C.3       11 UNK        -0.0857 
     47 S47       -77.9537   30.3174  -75.6780 S.3       11 UNK        -0.2512 
     48 C48       -78.4159   30.9646  -74.0384 C.3       11 UNK         0.0225 
     49 N         -77.7731   26.1951  -75.1186 N.am      5 UNK        -0.4615 
     50 C         -77.0045   25.1657  -74.7213 C.2       4 UNK         0.5053 
     51 O         -75.8314   25.2868  -74.3709 O.2       4 UNK        -0.5105 
     52 CA        -77.6010   23.7474  -74.7933 C.3       4 UNK         0.0263 
     53 CB        -78.1319   23.2926  -73.4275 C.3       4 UNK        -0.1981 
     54 N         -78.6423   23.6060  -75.8117 N.am      4 UNK        -0.4224 
     55 C         -78.4223   23.7374  -77.1290 C.2       3 UNK         0.4895 
     56 O         -77.3054   23.9204  -77.6152 O.2       3 UNK        -0.5091 
     57 CA        -79.6444   23.7084  -78.0651 C.3       3 UNK         0.0250 
     58 CB        -79.7828   22.3241  -78.7180 C.3       3 UNK        -0.1996 
     59 N         -80.9174   24.0745  -77.4319 N.am      3 UNK        -0.4254 
     60 C         -81.1781   25.2354  -76.8132 C.2       2 UNK         0.5004 
     61 O         -80.3445   26.1313  -76.6703 O.2       2 UNK        -0.5226 
     62 CA        -82.5914   25.4370  -76.2328 C.3       2 UNK         0.0269 
     63 CB        -83.5373   24.2256  -76.4111 C.3       2 UNK        -0.1926 
     64 N         -82.5468   25.8497  -74.8240 N.am      2 UNK        -0.4687 
     65 C         -82.0006   25.1691  -73.8047 C.2       1 UNK         0.5165 
     66 O         -81.4304   24.0826  -73.9310 O.2       1 UNK        -0.5079 
     67 H67       -84.3143   23.5525  -73.0069 H         1 UNK         0.0900 
     68 H68       -84.8882   24.9969  -72.1520 H         1 UNK         0.0900 
     69 H69       -85.3181   23.3987  -71.5708 H         1 UNK         0.0900 
     70 H70       -81.4501   24.7390  -70.7605 H         1 UNK         0.2959 
     71 H71       -83.0804   26.3804  -72.4227 H         1 UNK         0.1079 
     72 H72       -80.7689   27.4144  -73.0183 H         1 UNK         0.0837 
     73 H73       -81.4007   27.5773  -71.4101 H         1 UNK         0.0837 
     74 H74       -78.2819   27.0766  -69.5652 H         1 UNK         0.0685 
     75 H75       -79.6876   28.0419  -69.9212 H         1 UNK         0.0685 
     76 H76       -79.6457   29.2977  -72.2792 H         1 UNK         0.1434 
     77 H77       -75.7841   30.8136  -73.3461 H         1 UNK         0.1329 
     78 H78       -76.1491   27.8483  -70.2686 H         1 UNK         0.1335 
     79 H79       -73.8533   28.9855  -72.5115 H         1 UNK         0.0680 
     80 H80       -73.9954   28.6716  -70.7945 H         1 UNK         0.0680 
     81 H81       -71.4082   31.2340  -70.3714 H         1 UNK         0.1032 
     82 H82       -71.6837   29.5976  -70.8925 H         1 UNK         0.1032 
     83 H83       -71.2219   32.0128  -72.7218 H         1 UNK         0.0461 
     84 H84       -69.5023   28.9995  -73.4249 H         1 UNK         0.3453 
     85 H85       -67.9777   29.5426  -72.7603 H         1 UNK         0.3453 
     86 H86       -72.2228   29.4051  -73.4150 H         1 UNK         0.2984 
     87 H87       -72.8585   29.8387  -76.3560 H         1 UNK         0.0554 
     88 H88       -70.7822   30.1118  -77.6672 H         1 UNK         0.0847 
     89 H89       -71.3880   28.4759  -77.8570 H         1 UNK         0.0847 
     90 H90       -70.0137   28.7908  -76.7984 H         1 UNK         0.0847 
     91 H91       -73.3092   27.8512  -75.5603 H         1 UNK         0.3141 
     92 H92       -71.4250   25.2558  -73.9427 H         1 UNK         0.0743 
     93 H93       -72.5082   26.6714  -72.1695 H         1 UNK         0.0784 
     94 H94       -73.9609   26.7781  -73.1634 H         1 UNK         0.0784 
     95 H95       -73.4307   25.2234  -72.5393 H         1 UNK         0.0784 
     96 H96       -74.0526   25.3717  -75.1423 H         1 UNK         0.3213 
     97 H97       -72.9578   23.8026  -78.2151 H         1 UNK         0.0855 
     98 H98       -74.6538   22.9385  -75.8172 H         1 UNK         0.0814 
     99 H99       -73.3775   22.0123  -76.5854 H         1 UNK         0.0814 
    100 H100      -74.8632   22.3417  -77.4642 H         1 UNK         0.0814 
    101 H101      -75.5247   24.7615  -77.4515 H         1 UNK         0.3105 
    102 H102      -75.2034   28.0247  -78.8706 H         1 UNK         0.0547 
    103 H103      -76.7568   25.5433  -79.7887 H         1 UNK         0.0837 
    104 H104      -77.1600   27.2184  -80.1668 H         1 UNK         0.0837 
    105 H105      -75.6835   26.5056  -80.7935 H         1 UNK         0.0837 
    106 H106      -77.3997   26.6672  -77.6577 H         1 UNK         0.3020 
    107 H107      -76.8391   27.8615  -74.3310 H         1 UNK         0.1245 
    108 H108      -79.2439   28.4538  -74.8315 H         1 UNK         0.0781 
    109 H109      -78.9317   28.3090  -76.5328 H         1 UNK         0.0781 
    110 H110      -78.0909   32.0029  -73.9585 H         1 UNK         0.0836 
    111 H111      -79.5035   30.9745  -73.9505 H         1 UNK         0.0836 
    112 H112      -78.7151   26.0088  -75.4466 H         1 UNK         0.3022 
    113 H113      -76.7907   23.0706  -75.0655 H         1 UNK         0.0747 
    114 H114      -77.3671   23.3943  -72.6563 H         1 UNK         0.0793 
    115 H115      -78.4368   22.2464  -73.4481 H         1 UNK         0.0793 
    116 H116      -78.9898   23.8830  -73.1136 H         1 UNK         0.0793 
    117 H117      -79.5921   23.4897  -75.4823 H         1 UNK         0.3047 
    118 H118      -79.4545   24.4399  -78.8534 H         1 UNK         0.0822 
    119 H119      -78.8586   22.0353  -79.2210 H         1 UNK         0.0807 
    120 H120      -80.5729   22.3152  -79.4691 H         1 UNK         0.0807 
    121 H121      -80.0081   21.5513  -77.9819 H         1 UNK         0.0807 
    122 H122      -81.6570   23.3888  -77.4819 H         1 UNK         0.2946 
    123 H123      -83.0195   26.2730  -76.7887 H         1 UNK         0.1144 
    124 H124      -83.6771   23.9816  -77.4651 H         1 UNK         0.0793 
    125 H125      -84.5262   24.4425  -76.0068 H         1 UNK         0.0793 
    126 H126      -83.1679   23.3324  -75.9058 H         1 UNK         0.0793 
    127 H127      -82.9584   26.7529  -74.6326 H         1 UNK         0.2896 
@<TRIPOS>BOND
     1    1    2 1    
     2    1   67 1    
     3    1   68 1    
     4    1   69 1    
     5    2    3 2    
     6    2    4 am   BACKBONE|DICT|INTERRES
     7    4    5 1    
     8    4   70 1    
     9    5    6 1    
    10    5   65 1    
    11    5   71 1    
    12    6    7 1    
    13    6   72 1    
    14    6   73 1    
    15    7    8 1    
    16    8    9 1    
    17    8   74 1    
    18    8   75 1    
    19    9   10 ar   
    20    9   14 ar   
    21   10   11 ar   
    22   10   76 1    
    23   11   12 ar   
    24   11   48 1    
    25   12   13 ar   
    26   12   77 1    
    27   13   14 ar   
    28   13   15 1    
    29   14   78 1    
    30   15   16 1    
    31   15   79 1    
    32   15   80 1    
    33   16   17 1    
    34   17   18 1    
    35   17   81 1    
    36   17   82 1    
    37   18   19 1    
    38   18   22 1    
    39   18   83 1    
    40   19   20 am   BACKBONE|DICT|INTERRES
    41   19   21 2    
    42   20   84 1    
    43   20   85 1    
    44   22   23 am   BACKBONE|DICT|INTERRES
    45   22   86 1    
    46   23   24 2    
    47   23   25 1    
    48   25   26 1    
    49   25   27 1    
    50   25   87 1    
    51   26   88 1    
    52   26   89 1    
    53   26   90 1    
    54   27   28 am   BACKBONE|DICT|INTERRES
    55   27   91 1    
    56   28   29 2    
    57   28   30 1    
    58   30   31 1    
    59   30   32 1    
    60   30   92 1    
    61   31   93 1    
    62   31   94 1    
    63   31   95 1    
    64   32   33 am   BACKBONE|DICT|INTERRES
    65   32   96 1    
    66   33   34 2    
    67   33   35 1    
    68   35   36 1    
    69   35   37 1    
    70   35   97 1    
    71   36   98 1    
    72   36   99 1    
    73   36  100 1    
    74   37   38 am   BACKBONE|DICT|INTERRES
    75   37  101 1    
    76   38   39 2    
    77   38   40 1    
    78   40   41 1    
    79   40   42 1    
    80   40  102 1    
    81   41  103 1    
    82   41  104 1    
    83   41  105 1    
    84   42   43 am   BACKBONE|DICT|INTERRES
    85   42  106 1    
    86   43   44 2    
    87   43   45 1    
    88   45   46 1    
    89   45   49 1    
    90   45  107 1    
    91   46   47 1    
    92   46  108 1    
    93   46  109 1    
    94   47   48 1    
    95   48  110 1    
    96   48  111 1    
    97   49   50 am   BACKBONE|DICT|INTERRES
    98   49  112 1    
    99   50   51 2    
   100   50   52 1    
   101   52   53 1    
   102   52   54 1    
   103   52  113 1    
   104   53  114 1    
   105   53  115 1    
   106   53  116 1    
   107   54   55 am   BACKBONE|DICT|INTERRES
   108   54  117 1    
   109   55   56 2    
   110   55   57 1    
   111   57   58 1    
   112   57   59 1    
   113   57  118 1    
   114   58  119 1    
   115   58  120 1    
   116   58  121 1    
   117   59   60 am   BACKBONE|DICT|INTERRES
   118   59  122 1    
   119   60   61 2    
   120   60   62 1    
   121   62   63 1    
   122   62   64 1    
   123   62  123 1    
   124   63  124 1    
   125   63  125 1    
   126   63  126 1    
   127   64   65 am   BACKBONE|DICT|INTERRES
   128   64  127 1    
   129   65   66 2    
@<TRIPOS>SUBSTRUCTURE
     1 UNK         1 GROUP             0       ****    0 ROOT    
