@<TRIPOS>MOLECULE
3R135
127   129    1
SMALL
USER_CHARGES


@<TRIPOS>ATOM
      1 CA        -77.8888   25.7499  -69.5564 C.3       0 UNK        -0.1998 
      2 C         -79.2636   25.4163  -70.1134 C.2       0 UNK         0.4909 
      3 O         -79.9268   24.5025  -69.6215 O.2       0 UNK        -0.5240 
      4 N         -79.6950   26.1441  -71.1514 N.am      1 UNK        -0.4739 
      5 CA        -81.0075   26.0194  -71.8012 C.3       1 UNK         0.0864 
      6 C6        -81.4389   27.3444  -72.4858 C.3       11 UNK        -0.0881 
      7 S7        -81.5335   28.7374  -71.3107 S.3       11 UNK        -0.2682 
      8 C8        -80.9899   30.1393  -72.3514 C.3       11 UNK         0.0289 
      9 C9        -79.5214   30.1289  -72.7870 C.ar      11 UNK        -0.0687 
     10 C10       -79.1399   30.9451  -73.8583 C.ar      11 UNK        -0.0823 
     11 C11       -77.8062   31.0125  -74.2751 C.ar      11 UNK        -0.0830 
     12 C12       -76.8490   30.2313  -73.6229 C.ar      11 UNK        -0.1021 
     13 C13       -77.2121   29.4011  -72.5609 C.ar      11 UNK        -0.0753 
     14 C14       -78.5416   29.3701  -72.1326 C.ar      11 UNK        -0.0933 
     15 C15       -76.1555   28.5589  -71.8694 C.3       11 UNK         0.0166 
     16 S16       -75.3617   29.5067  -70.5384 S.3       11 UNK        -0.2615 
     17 C17       -73.7876   28.6085  -70.3372 C.3       11 UNK        -0.0865 
     18 CA        -72.6323   29.2870  -71.1228 C.3       10 UNK         0.0862 
     19 C         -71.2412   28.7485  -70.6736 C.2       10 UNK         0.5551 
     20 N         -70.3880   28.2680  -71.5700 N.am      10 UNK        -0.7319 
     21 O         -70.9248   28.7779  -69.4869 O.2       10 UNK        -0.5018 
     22 N         -72.8656   29.2201  -72.5762 N.am      10 UNK        -0.4509 
     23 C         -72.4517   30.1196  -73.4757 C.2       10 UNK         0.4899 
     24 O         -71.8390   31.1484  -73.1877 O.2       10 UNK        -0.4839 
     25 CA        -72.7410   29.7702  -74.9469 C.3       9 UNK         0.0222 
     26 CB        -72.1383   30.7859  -75.9349 C.3       9 UNK        -0.1966 
     27 N         -72.2163   28.4350  -75.2439 N.am      9 UNK        -0.4218 
     28 C         -72.9474   27.3164  -75.2870 C.2       9 UNK         0.5020 
     29 O         -74.1727   27.2801  -75.1489 O.2       9 UNK        -0.5274 
     30 CA        -72.1776   26.0055  -75.4541 C.3       8 UNK         0.0270 
     31 CB        -71.9032   25.3614  -74.0815 C.3       8 UNK        -0.1976 
     32 N         -72.9939   25.1262  -76.2775 N.am      8 UNK        -0.4313 
     33 C         -72.5791   24.0356  -76.9301 C.2       8 UNK         0.5041 
     34 O         -71.4333   23.5877  -76.8689 O.2       8 UNK        -0.5577 
     35 CA        -73.6194   23.3358  -77.8202 C.3       7 UNK         0.0284 
     36 CB        -74.3557   22.2419  -77.0320 C.3       7 UNK        -0.1958 
     37 N         -74.5905   24.2804  -78.3820 N.am      7 UNK        -0.4454 
     38 C         -74.3086   25.1286  -79.3826 C.2       7 UNK         0.5089 
     39 O         -73.2218   25.1700  -79.9601 O.2       7 UNK        -0.5125 
     40 CA        -75.4128   26.1042  -79.8016 C.3       6 UNK         0.0408 
     41 CB        -76.4785   25.3817  -80.6423 C.3       6 UNK        -0.1791 
     42 N         -76.0540   26.7090  -78.6354 N.am      6 UNK        -0.4762 
     43 C         -75.9425   27.9923  -78.2592 C.2       6 UNK         0.5007 
     44 O         -75.1817   28.7878  -78.8120 O.2       6 UNK        -0.5032 
     45 CA        -76.8395   28.4768  -77.0873 C.3       5 UNK         0.0783 
     46 C46       -77.4225   29.9003  -77.3259 C.3       11 UNK        -0.0857 
     47 S47       -76.3365   31.2080  -76.6648 S.3       11 UNK        -0.2512 
     48 C48       -77.4029   31.9685  -75.3947 C.3       11 UNK         0.0225 
     49 N         -77.8698   27.4954  -76.7185 N.am      5 UNK        -0.4615 
     50 C         -78.9194   27.1166  -77.4631 C.2       4 UNK         0.5053 
     51 O         -79.2470   27.6763  -78.5099 O.2       4 UNK        -0.5105 
     52 CA        -79.7133   25.8817  -76.9868 C.3       4 UNK         0.0263 
     53 CB        -80.1490   24.9917  -78.1698 C.3       4 UNK        -0.1981 
     54 N         -79.0393   25.0640  -75.9660 N.am      4 UNK        -0.4224 
     55 C         -77.8551   24.4327  -76.0568 C.2       3 UNK         0.4895 
     56 O         -77.1113   24.5095  -77.0373 O.2       3 UNK        -0.5091 
     57 CA        -77.3825   23.6231  -74.8338 C.3       3 UNK         0.0250 
     58 CB        -76.2719   24.3886  -74.0923 C.3       3 UNK        -0.1996 
     59 N         -78.4527   23.3068  -73.8861 N.am      3 UNK        -0.4254 
     60 C         -79.4405   22.4246  -74.0986 C.2       2 UNK         0.5004 
     61 O         -79.5011   21.6873  -75.0825 O.2       2 UNK        -0.5226 
     62 CA        -80.5709   22.3835  -73.0514 C.3       2 UNK         0.0269 
     63 CB        -80.3620   21.2110  -72.0798 C.3       2 UNK        -0.1926 
     64 N         -80.7150   23.6259  -72.2799 N.am      2 UNK        -0.4687 
     65 C         -81.0134   24.8308  -72.7864 C.2       1 UNK         0.5165 
     66 O         -81.2121   25.0223  -73.9872 O.2       1 UNK        -0.5079 
     67 H67       -77.7682   25.3282  -68.5588 H         1 UNK         0.0900 
     68 H68       -77.1083   25.3384  -70.1957 H         1 UNK         0.0900 
     69 H69       -77.7488   26.8279  -69.4802 H         1 UNK         0.0900 
     70 H70       -79.0986   26.8625  -71.5322 H         1 UNK         0.2959 
     71 H71       -81.7532   25.7899  -71.0362 H         1 UNK         0.1079 
     72 H72       -80.7505   27.5971  -73.2948 H         1 UNK         0.0837 
     73 H73       -82.4222   27.2345  -72.9474 H         1 UNK         0.0837 
     74 H74       -81.6329   30.1771  -73.2323 H         1 UNK         0.0685 
     75 H75       -81.1723   31.0613  -71.7982 H         1 UNK         0.0685 
     76 H76       -79.8853   31.5520  -74.3544 H         1 UNK         0.1434 
     77 H77       -75.8147   30.2808  -73.9313 H         1 UNK         0.1329 
     78 H78       -78.8009   28.7681  -71.2754 H         1 UNK         0.1335 
     79 H79       -76.5935   27.6491  -71.4598 H         1 UNK         0.0680 
     80 H80       -75.4160   28.2354  -72.6024 H         1 UNK         0.0680 
     81 H81       -73.5695   28.5941  -69.2675 H         1 UNK         0.1032 
     82 H82       -73.9047   27.5641  -70.6319 H         1 UNK         0.1032 
     83 H83       -72.6271   30.3408  -70.8368 H         1 UNK         0.0461 
     84 H84       -70.6222   28.2695  -72.5476 H         1 UNK         0.3453 
     85 H85       -69.4896   27.9294  -71.2633 H         1 UNK         0.3453 
     86 H86       -73.3428   28.3971  -72.9128 H         1 UNK         0.2984 
     87 H87       -73.8241   29.7895  -75.0799 H         1 UNK         0.0554 
     88 H88       -72.5352   31.7861  -75.7558 H         1 UNK         0.0847 
     89 H89       -72.3818   30.5247  -76.9650 H         1 UNK         0.0847 
     90 H90       -71.0526   30.8436  -75.8493 H         1 UNK         0.0847 
     91 H91       -71.2137   28.3645  -75.3509 H         1 UNK         0.3141 
     92 H92       -71.2348   26.2005  -75.9696 H         1 UNK         0.0743 
     93 H93       -72.8296   25.1389  -73.5498 H         1 UNK         0.0784 
     94 H94       -71.3455   24.4302  -74.1817 H         1 UNK         0.0784 
     95 H95       -71.3119   26.0223  -73.4471 H         1 UNK         0.0784 
     96 H96       -73.9469   25.4455  -76.3986 H         1 UNK         0.3213 
     97 H97       -73.0865   22.8580  -78.6455 H         1 UNK         0.0855 
     98 H98       -74.8426   22.6447  -76.1454 H         1 UNK         0.0814 
     99 H99       -73.6594   21.4724  -76.6961 H         1 UNK         0.0814 
    100 H100      -75.1143   21.7505  -77.6415 H         1 UNK         0.0814 
    101 H101      -75.5159   24.3023  -77.9582 H         1 UNK         0.3105 
    102 H102      -74.9586   26.8742  -80.4285 H         1 UNK         0.0547 
    103 H103      -76.0337   24.9221  -81.5259 H         1 UNK         0.0837 
    104 H104      -76.9769   24.5922  -80.0782 H         1 UNK         0.0837 
    105 H105      -77.2441   26.0762  -80.9886 H         1 UNK         0.0837 
    106 H106      -76.6593   26.1007  -78.0925 H         1 UNK         0.3020 
    107 H107      -76.1807   28.5195  -76.2190 H         1 UNK         0.1245 
    108 H108      -78.3985   29.9944  -76.8478 H         1 UNK         0.0781 
    109 H109      -77.6079   30.0888  -78.3852 H         1 UNK         0.0781 
    110 H110      -78.2837   32.3851  -75.8860 H         1 UNK         0.0836 
    111 H111      -76.8711   32.8128  -74.9542 H         1 UNK         0.0836 
    112 H112      -77.6886   26.9786  -75.8707 H         1 UNK         0.3022 
    113 H113      -80.6159   26.2705  -76.5131 H         1 UNK         0.0747 
    114 H114      -80.7269   24.1334  -77.8268 H         1 UNK         0.0793 
    115 H115      -80.7783   25.5438  -78.8690 H         1 UNK         0.0793 
    116 H116      -79.2921   24.6164  -78.7302 H         1 UNK         0.0793 
    117 H117      -79.5848   24.9356  -75.1192 H         1 UNK         0.3047 
    118 H118      -76.9742   22.6819  -75.2061 H         1 UNK         0.0822 
    119 H119      -75.8559   23.7944  -73.2784 H         1 UNK         0.0807 
    120 H120      -76.6349   25.3272  -73.6715 H         1 UNK         0.0807 
    121 H121      -75.4469   24.6354  -74.7609 H         1 UNK         0.0807 
    122 H122      -78.4816   23.8460  -73.0336 H         1 UNK         0.2946 
    123 H123      -81.5039   22.2210  -73.5958 H         1 UNK         0.1144 
    124 H124      -81.2018   21.1112  -71.3919 H         1 UNK         0.0793 
    125 H125      -79.4549   21.3352  -71.4868 H         1 UNK         0.0793 
    126 H126      -80.2734   20.2666  -72.6191 H         1 UNK         0.0793 
    127 H127      -80.5243   23.5782  -71.2828 H         1 UNK         0.2896 
@<TRIPOS>BOND
     1    1    2 1    
     2    1   67 1    
     3    1   68 1    
     4    1   69 1    
     5    2    3 2    
     6    2    4 am   BACKBONE|DICT|INTERRES
     7    4    5 1    
     8    4   70 1    
     9    5    6 1    
    10    5   65 1    
    11    5   71 1    
    12    6    7 1    
    13    6   72 1    
    14    6   73 1    
    15    7    8 1    
    16    8    9 1    
    17    8   74 1    
    18    8   75 1    
    19    9   10 ar   
    20    9   14 ar   
    21   10   11 ar   
    22   10   76 1    
    23   11   12 ar   
    24   11   48 1    
    25   12   13 ar   
    26   12   77 1    
    27   13   14 ar   
    28   13   15 1    
    29   14   78 1    
    30   15   16 1    
    31   15   79 1    
    32   15   80 1    
    33   16   17 1    
    34   17   18 1    
    35   17   81 1    
    36   17   82 1    
    37   18   19 1    
    38   18   22 1    
    39   18   83 1    
    40   19   20 am   BACKBONE|DICT|INTERRES
    41   19   21 2    
    42   20   84 1    
    43   20   85 1    
    44   22   23 am   BACKBONE|DICT|INTERRES
    45   22   86 1    
    46   23   24 2    
    47   23   25 1    
    48   25   26 1    
    49   25   27 1    
    50   25   87 1    
    51   26   88 1    
    52   26   89 1    
    53   26   90 1    
    54   27   28 am   BACKBONE|DICT|INTERRES
    55   27   91 1    
    56   28   29 2    
    57   28   30 1    
    58   30   31 1    
    59   30   32 1    
    60   30   92 1    
    61   31   93 1    
    62   31   94 1    
    63   31   95 1    
    64   32   33 am   BACKBONE|DICT|INTERRES
    65   32   96 1    
    66   33   34 2    
    67   33   35 1    
    68   35   36 1    
    69   35   37 1    
    70   35   97 1    
    71   36   98 1    
    72   36   99 1    
    73   36  100 1    
    74   37   38 am   BACKBONE|DICT|INTERRES
    75   37  101 1    
    76   38   39 2    
    77   38   40 1    
    78   40   41 1    
    79   40   42 1    
    80   40  102 1    
    81   41  103 1    
    82   41  104 1    
    83   41  105 1    
    84   42   43 am   BACKBONE|DICT|INTERRES
    85   42  106 1    
    86   43   44 2    
    87   43   45 1    
    88   45   46 1    
    89   45   49 1    
    90   45  107 1    
    91   46   47 1    
    92   46  108 1    
    93   46  109 1    
    94   47   48 1    
    95   48  110 1    
    96   48  111 1    
    97   49   50 am   BACKBONE|DICT|INTERRES
    98   49  112 1    
    99   50   51 2    
   100   50   52 1    
   101   52   53 1    
   102   52   54 1    
   103   52  113 1    
   104   53  114 1    
   105   53  115 1    
   106   53  116 1    
   107   54   55 am   BACKBONE|DICT|INTERRES
   108   54  117 1    
   109   55   56 2    
   110   55   57 1    
   111   57   58 1    
   112   57   59 1    
   113   57  118 1    
   114   58  119 1    
   115   58  120 1    
   116   58  121 1    
   117   59   60 am   BACKBONE|DICT|INTERRES
   118   59  122 1    
   119   60   61 2    
   120   60   62 1    
   121   62   63 1    
   122   62   64 1    
   123   62  123 1    
   124   63  124 1    
   125   63  125 1    
   126   63  126 1    
   127   64   65 am   BACKBONE|DICT|INTERRES
   128   64  127 1    
   129   65   66 2    
@<TRIPOS>SUBSTRUCTURE
     1 UNK         1 GROUP             0       ****    0 ROOT    
