@<TRIPOS>MOLECULE
3R135
127   129    1
SMALL
USER_CHARGES


@<TRIPOS>ATOM
      1 CA        -80.8317   23.0460  -68.8749 C.3       0 UNK        -0.1998 
      2 C         -81.3000   23.9980  -69.9649 C.2       0 UNK         0.4909 
      3 O         -82.4501   24.4368  -69.9429 O.2       0 UNK        -0.5240 
      4 N         -80.4197   24.3157  -70.9237 N.am      1 UNK        -0.4739 
      5 CA        -80.6858   25.2440  -72.0357 C.3       1 UNK         0.0864 
      6 C6        -79.3877   25.9021  -72.5767 C.3       11 UNK        -0.0881 
      7 S7        -78.3989   26.6680  -71.2473 S.3       11 UNK        -0.2682 
      8 C8        -79.1501   28.3220  -71.1233 C.3       11 UNK         0.0289 
      9 C9        -78.3832   29.3536  -71.9355 C.ar      11 UNK        -0.0687 
     10 C10       -78.9347   29.9177  -73.0896 C.ar      11 UNK        -0.0823 
     11 C11       -78.2322   30.8936  -73.8058 C.ar      11 UNK        -0.0830 
     12 C12       -76.9603   31.2847  -73.3731 C.ar      11 UNK        -0.1021 
     13 C13       -76.4008   30.7311  -72.2170 C.ar      11 UNK        -0.0753 
     14 C14       -77.1249   29.7748  -71.4992 C.ar      11 UNK        -0.0933 
     15 C15       -75.0343   31.1925  -71.7242 C.3       11 UNK         0.0166 
     16 S16       -73.9109   29.7926  -71.4283 S.3       11 UNK        -0.2615 
     17 C17       -72.3259   30.6478  -71.1355 C.3       11 UNK        -0.0865 
     18 CA        -71.5393   30.9203  -72.4441 C.3       10 UNK         0.0862 
     19 C         -70.1624   31.5674  -72.1339 C.2       10 UNK         0.5551 
     20 N         -70.1021   32.8900  -72.0624 N.am      10 UNK        -0.7319 
     21 O         -69.1650   30.8829  -71.9122 O.2       10 UNK        -0.5018 
     22 N         -71.4363   29.7106  -73.2697 N.am      10 UNK        -0.4509 
     23 C         -71.0175   29.6584  -74.5362 C.2       10 UNK         0.4899 
     24 O         -70.6181   30.6373  -75.1678 O.2       10 UNK        -0.4839 
     25 CA        -71.0935   28.2960  -75.2450 C.3       9 UNK         0.0222 
     26 CB        -69.7935   27.4902  -75.0599 C.3       9 UNK        -0.1966 
     27 N         -72.2845   27.4999  -74.9143 N.am      9 UNK        -0.4218 
     28 C         -72.5994   26.8432  -73.7870 C.2       9 UNK         0.5020 
     29 O         -71.9200   26.8737  -72.7602 O.2       9 UNK        -0.5274 
     30 CA        -73.8895   25.9972  -73.8141 C.3       8 UNK         0.0270 
     31 CB        -75.0921   26.8076  -73.3029 C.3       8 UNK        -0.1976 
     32 N         -74.1942   25.4664  -75.1468 N.am      8 UNK        -0.4313 
     33 C         -73.4500   24.5588  -75.7975 C.2       8 UNK         0.5041 
     34 O         -72.4860   23.9756  -75.3002 O.2       8 UNK        -0.5577 
     35 CA        -73.8191   24.2852  -77.2643 C.3       7 UNK         0.0284 
     36 CB        -74.9395   23.2375  -77.3694 C.3       7 UNK        -0.1958 
     37 N         -74.2113   25.5152  -77.9578 N.am      7 UNK        -0.4454 
     38 C         -73.3483   26.4513  -78.3807 C.2       7 UNK         0.5089 
     39 O         -72.1253   26.3413  -78.3026 O.2       7 UNK        -0.5125 
     40 CA        -73.9470   27.7390  -78.9761 C.3       6 UNK         0.0408 
     41 CB        -74.1019   27.6029  -80.4989 C.3       6 UNK        -0.1791 
     42 N         -75.2390   28.1016  -78.3871 N.am      6 UNK        -0.4762 
     43 C         -75.4150   28.5239  -77.1250 C.2       6 UNK         0.5007 
     44 O         -74.4909   28.6984  -76.3334 O.2       6 UNK        -0.5032 
     45 CA        -76.8727   28.7206  -76.6578 C.3       5 UNK         0.0783 
     46 C46       -77.3468   30.1647  -76.9471 C.3       11 UNK        -0.0857 
     47 S47       -79.0735   30.4418  -76.4253 S.3       11 UNK        -0.2512 
     48 C48       -78.8725   31.5687  -75.0115 C.3       11 UNK         0.0225 
     49 N         -77.7651   27.7136  -77.2480 N.am      5 UNK        -0.4615 
     50 C         -77.6850   26.4008  -77.0116 C.2       4 UNK         0.5053 
     51 O         -76.8629   25.8902  -76.2457 O.2       4 UNK        -0.5105 
     52 CA        -78.6171   25.5056  -77.8295 C.3       4 UNK         0.0263 
     53 CB        -78.0336   25.2854  -79.2412 C.3       4 UNK        -0.1981 
     54 N         -78.7592   24.2359  -77.1257 N.am      4 UNK        -0.4224 
     55 C         -79.6418   23.2716  -77.4071 C.2       3 UNK         0.4895 
     56 O         -80.4540   23.3341  -78.3308 O.2       3 UNK        -0.5091 
     57 CA        -79.6220   22.0307  -76.4977 C.3       3 UNK         0.0250 
     58 CB        -78.2059   21.6463  -76.0224 C.3       3 UNK        -0.1996 
     59 N         -80.4865   22.2351  -75.3363 N.am      3 UNK        -0.4254 
     60 C         -81.8260   22.1755  -75.3497 C.2       2 UNK         0.5004 
     61 O         -82.4921   21.8577  -76.3355 O.2       2 UNK        -0.5226 
     62 CA        -82.5556   22.5028  -74.0354 C.3       2 UNK         0.0269 
     63 CB        -83.0262   21.2112  -73.3457 C.3       2 UNK        -0.1926 
     64 N         -81.7476   23.2770  -73.0884 N.am      2 UNK        -0.4687 
     65 C         -81.5021   24.5932  -73.1764 C.2       1 UNK         0.5165 
     66 O         -81.8980   25.2914  -74.1102 O.2       1 UNK        -0.5079 
     67 H67       -80.9088   23.5263  -67.8999 H         1 UNK         0.0900 
     68 H68       -79.7963   22.7380  -69.0195 H         1 UNK         0.0900 
     69 H69       -81.4538   22.1515  -68.8646 H         1 UNK         0.0900 
     70 H70       -79.4797   23.9473  -70.8800 H         1 UNK         0.2959 
     71 H71       -81.3167   26.0480  -71.6499 H         1 UNK         0.1079 
     72 H72       -78.7605   25.1606  -73.0750 H         1 UNK         0.0837 
     73 H73       -79.6152   26.6599  -73.3295 H         1 UNK         0.0837 
     74 H74       -80.1984   28.2850  -71.4228 H         1 UNK         0.0685 
     75 H75       -79.1470   28.6254  -70.0754 H         1 UNK         0.0685 
     76 H76       -79.9179   29.6141  -73.4227 H         1 UNK         0.1434 
     77 H77       -76.4156   32.0405  -73.9225 H         1 UNK         0.1329 
     78 H78       -76.7038   29.3487  -70.5987 H         1 UNK         0.1335 
     79 H79       -74.5751   31.8665  -72.4489 H         1 UNK         0.0680 
     80 H80       -75.1582   31.7587  -70.8002 H         1 UNK         0.0680 
     81 H81       -71.7346   30.0231  -70.4628 H         1 UNK         0.1032 
     82 H82       -72.5131   31.5780  -70.5956 H         1 UNK         0.1032 
     83 H83       -72.1153   31.6393  -73.0301 H         1 UNK         0.0461 
     84 H84       -69.2208   33.3290  -71.8454 H         1 UNK         0.3453 
     85 H85       -70.9157   33.4604  -72.2332 H         1 UNK         0.3453 
     86 H86       -71.7175   28.8401  -72.8306 H         1 UNK         0.2984 
     87 H87       -71.1900   28.5096  -76.3109 H         1 UNK         0.0554 
     88 H88       -69.8284   26.5519  -75.6140 H         1 UNK         0.0847 
     89 H89       -69.6025   27.2560  -74.0124 H         1 UNK         0.0847 
     90 H90       -68.9338   28.0526  -75.4262 H         1 UNK         0.0847 
     91 H91       -73.0057   27.5257  -75.6276 H         1 UNK         0.3141 
     92 H92       -73.7427   25.1467  -73.1452 H         1 UNK         0.0743 
     93 H93       -75.2326   27.7303  -73.8665 H         1 UNK         0.0784 
     94 H94       -76.0177   26.2345  -73.3628 H         1 UNK         0.0784 
     95 H95       -74.9549   27.0860  -72.2577 H         1 UNK         0.0784 
     96 H96       -75.0310   25.8213  -75.6014 H         1 UNK         0.3213 
     97 H97       -72.9339   23.8785  -77.7590 H         1 UNK         0.0855 
     98 H98       -75.8513   23.5626  -76.8712 H         1 UNK         0.0814 
     99 H99       -74.6354   22.2990  -76.9039 H         1 UNK         0.0814 
    100 H100      -75.1833   23.0180  -78.4089 H         1 UNK         0.0814 
    101 H101      -75.1994   25.7061  -78.0268 H         1 UNK         0.3105 
    102 H102      -73.2453   28.5520  -78.7766 H         1 UNK         0.0547 
    103 H103      -73.1474   27.3573  -80.9668 H         1 UNK         0.0837 
    104 H104      -74.8073   26.8152  -80.7669 H         1 UNK         0.0837 
    105 H105      -74.4494   28.5334  -80.9480 H         1 UNK         0.0837 
    106 H106      -76.0541   27.9964  -78.9738 H         1 UNK         0.3020 
    107 H107      -76.8834   28.5736  -75.5747 H         1 UNK         0.1245 
    108 H108      -76.6957   30.8866  -76.4502 H         1 UNK         0.0781 
    109 H109      -77.2829   30.3850  -78.0145 H         1 UNK         0.0781 
    110 H110      -79.8556   31.9441  -74.7237 H         1 UNK         0.0836 
    111 H111      -78.2983   32.4421  -75.3251 H         1 UNK         0.0836 
    112 H112      -78.4767   28.0637  -77.8736 H         1 UNK         0.3022 
    113 H113      -79.5964   25.9840  -77.8979 H         1 UNK         0.0747 
    114 H114      -78.7070   24.6998  -79.8666 H         1 UNK         0.0793 
    115 H115      -77.8714   26.2327  -79.7566 H         1 UNK         0.0793 
    116 H116      -77.0776   24.7620  -79.2062 H         1 UNK         0.0793 
    117 H117      -78.1327   24.1363  -76.3368 H         1 UNK         0.3047 
    118 H118      -80.0120   21.1948  -77.0830 H         1 UNK         0.0822 
    119 H119      -78.2174   20.6876  -75.5034 H         1 UNK         0.0807 
    120 H120      -77.7773   22.3815  -75.3405 H         1 UNK         0.0807 
    121 H121      -77.5253   21.5408  -76.8686 H         1 UNK         0.0807 
    122 H122      -80.0385   22.5043  -74.4733 H         1 UNK         0.2946 
    123 H123      -83.4380   23.0919  -74.2973 H         1 UNK         0.1144 
    124 H124      -83.6614   20.6228  -74.0095 H         1 UNK         0.0793 
    125 H125      -83.6105   21.4291  -72.4514 H         1 UNK         0.0793 
    126 H126      -82.1864   20.5792  -73.0540 H         1 UNK         0.0793 
    127 H127      -81.3925   22.7863  -72.2803 H         1 UNK         0.2896 
@<TRIPOS>BOND
     1    1    2 1    
     2    1   67 1    
     3    1   68 1    
     4    1   69 1    
     5    2    3 2    
     6    2    4 am   BACKBONE|DICT|INTERRES
     7    4    5 1    
     8    4   70 1    
     9    5    6 1    
    10    5   65 1    
    11    5   71 1    
    12    6    7 1    
    13    6   72 1    
    14    6   73 1    
    15    7    8 1    
    16    8    9 1    
    17    8   74 1    
    18    8   75 1    
    19    9   10 ar   
    20    9   14 ar   
    21   10   11 ar   
    22   10   76 1    
    23   11   12 ar   
    24   11   48 1    
    25   12   13 ar   
    26   12   77 1    
    27   13   14 ar   
    28   13   15 1    
    29   14   78 1    
    30   15   16 1    
    31   15   79 1    
    32   15   80 1    
    33   16   17 1    
    34   17   18 1    
    35   17   81 1    
    36   17   82 1    
    37   18   19 1    
    38   18   22 1    
    39   18   83 1    
    40   19   20 am   BACKBONE|DICT|INTERRES
    41   19   21 2    
    42   20   84 1    
    43   20   85 1    
    44   22   23 am   BACKBONE|DICT|INTERRES
    45   22   86 1    
    46   23   24 2    
    47   23   25 1    
    48   25   26 1    
    49   25   27 1    
    50   25   87 1    
    51   26   88 1    
    52   26   89 1    
    53   26   90 1    
    54   27   28 am   BACKBONE|DICT|INTERRES
    55   27   91 1    
    56   28   29 2    
    57   28   30 1    
    58   30   31 1    
    59   30   32 1    
    60   30   92 1    
    61   31   93 1    
    62   31   94 1    
    63   31   95 1    
    64   32   33 am   BACKBONE|DICT|INTERRES
    65   32   96 1    
    66   33   34 2    
    67   33   35 1    
    68   35   36 1    
    69   35   37 1    
    70   35   97 1    
    71   36   98 1    
    72   36   99 1    
    73   36  100 1    
    74   37   38 am   BACKBONE|DICT|INTERRES
    75   37  101 1    
    76   38   39 2    
    77   38   40 1    
    78   40   41 1    
    79   40   42 1    
    80   40  102 1    
    81   41  103 1    
    82   41  104 1    
    83   41  105 1    
    84   42   43 am   BACKBONE|DICT|INTERRES
    85   42  106 1    
    86   43   44 2    
    87   43   45 1    
    88   45   46 1    
    89   45   49 1    
    90   45  107 1    
    91   46   47 1    
    92   46  108 1    
    93   46  109 1    
    94   47   48 1    
    95   48  110 1    
    96   48  111 1    
    97   49   50 am   BACKBONE|DICT|INTERRES
    98   49  112 1    
    99   50   51 2    
   100   50   52 1    
   101   52   53 1    
   102   52   54 1    
   103   52  113 1    
   104   53  114 1    
   105   53  115 1    
   106   53  116 1    
   107   54   55 am   BACKBONE|DICT|INTERRES
   108   54  117 1    
   109   55   56 2    
   110   55   57 1    
   111   57   58 1    
   112   57   59 1    
   113   57  118 1    
   114   58  119 1    
   115   58  120 1    
   116   58  121 1    
   117   59   60 am   BACKBONE|DICT|INTERRES
   118   59  122 1    
   119   60   61 2    
   120   60   62 1    
   121   62   63 1    
   122   62   64 1    
   123   62  123 1    
   124   63  124 1    
   125   63  125 1    
   126   63  126 1    
   127   64   65 am   BACKBONE|DICT|INTERRES
   128   64  127 1    
   129   65   66 2    
@<TRIPOS>SUBSTRUCTURE
     1 UNK         1 GROUP             0       ****    0 ROOT    
