@<TRIPOS>MOLECULE
3R135
127   129    1
SMALL
USER_CHARGES


@<TRIPOS>ATOM
      1 CA        -84.2896   25.7353  -70.9453 C.3       0 UNK        -0.1998 
      2 C         -83.8787   26.1875  -72.3386 C.2       0 UNK         0.4909 
      3 O         -84.6548   26.0410  -73.2841 O.2       0 UNK        -0.5240 
      4 N         -82.6687   26.7452  -72.4688 N.am      1 UNK        -0.4739 
      5 CA        -82.0818   27.1875  -73.7398 C.3       1 UNK         0.0864 
      6 C6        -80.8831   28.1442  -73.5229 C.3       11 UNK        -0.0881 
      7 S7        -81.3085   29.6081  -72.5160 S.3       11 UNK        -0.2682 
      8 C8        -79.8941   29.6876  -71.3552 C.3       11 UNK         0.0289 
      9 C9        -78.5223   29.9639  -71.9809 C.ar      11 UNK        -0.0687 
     10 C10       -78.3608   30.3266  -73.3247 C.ar      11 UNK        -0.0823 
     11 C11       -77.0901   30.5186  -73.8698 C.ar      11 UNK        -0.0830 
     12 C12       -75.9677   30.4116  -73.0476 C.ar      11 UNK        -0.1021 
     13 C13       -76.1052   30.0606  -71.7034 C.ar      11 UNK        -0.0753 
     14 C14       -77.3827   29.8386  -71.1775 C.ar      11 UNK        -0.0933 
     15 C15       -74.8688   29.9000  -70.8325 C.3       11 UNK         0.0166 
     16 S16       -74.4712   28.1393  -70.5957 S.3       11 UNK        -0.2615 
     17 C17       -72.6454   28.1218  -70.6786 C.3       11 UNK        -0.0865 
     18 CA        -72.0827   27.4279  -71.9546 C.3       10 UNK         0.0862 
     19 C         -72.2406   25.8802  -71.9305 C.2       10 UNK         0.5551 
     20 N         -72.7955   25.2367  -72.9518 N.am      10 UNK        -0.7319 
     21 O         -71.8127   25.2392  -70.9734 O.2       10 UNK        -0.5018 
     22 N         -72.5296   28.0550  -73.2062 N.am      10 UNK        -0.4509 
     23 C         -72.1483   29.2562  -73.6466 C.2       10 UNK         0.4899 
     24 O         -71.3850   30.0101  -73.0408 O.2       10 UNK        -0.4839 
     25 CA        -72.7234   29.6563  -75.0117 C.3       9 UNK         0.0222 
     26 CB        -72.5416   31.1511  -75.3500 C.3       9 UNK        -0.1966 
     27 N         -72.2219   28.7873  -76.0778 N.am      9 UNK        -0.4218 
     28 C         -70.9661   28.6840  -76.5388 C.2       9 UNK         0.5020 
     29 O         -70.0209   29.3628  -76.1350 O.2       9 UNK        -0.5274 
     30 CA        -70.7032   27.6345  -77.6367 C.3       8 UNK         0.0270 
     31 CB        -69.8930   26.4579  -77.0663 C.3       8 UNK        -0.1976 
     32 N         -71.9185   27.1036  -78.2584 N.am      8 UNK        -0.4313 
     33 C         -72.7508   27.7605  -79.0741 C.2       8 UNK         0.5041 
     34 O         -72.5584   28.9158  -79.4531 O.2       8 UNK        -0.5577 
     35 CA        -74.0300   27.0247  -79.5241 C.3       7 UNK         0.0284 
     36 CB        -73.7995   26.2877  -80.8578 C.3       7 UNK        -0.1958 
     37 N         -74.6268   26.1323  -78.5132 N.am      7 UNK        -0.4454 
     38 C         -74.1287   25.0082  -77.9741 C.2       7 UNK         0.5089 
     39 O         -73.0322   24.5368  -78.2789 O.2       7 UNK        -0.5125 
     40 CA        -74.9768   24.3194  -76.8876 C.3       6 UNK         0.0408 
     41 CB        -74.1147   23.4708  -75.9299 C.3       6 UNK        -0.1791 
     42 N         -75.8358   25.2466  -76.1407 N.am      6 UNK        -0.4762 
     43 C         -75.4589   26.2609  -75.3433 C.2       6 UNK         0.5007 
     44 O         -74.2870   26.5692  -75.1057 O.2       6 UNK        -0.5032 
     45 CA        -76.6116   27.0479  -74.6908 C.3       5 UNK         0.0783 
     46 C46       -77.3227   27.9764  -75.7139 C.3       11 UNK        -0.0857 
     47 S47       -76.2725   29.3662  -76.2699 S.3       11 UNK        -0.2512 
     48 C48       -76.9374   30.8014  -75.3574 C.3       11 UNK         0.0225 
     49 N         -77.5440   26.1027  -74.0660 N.am      5 UNK        -0.4615 
     50 C         -77.3215   25.4978  -72.8880 C.2       4 UNK         0.5053 
     51 O         -76.3913   25.7885  -72.1406 O.2       4 UNK        -0.5105 
     52 CA        -78.2673   24.3556  -72.4713 C.3       4 UNK         0.0263 
     53 CB        -79.3569   24.8591  -71.5115 C.3       4 UNK        -0.1981 
     54 N         -78.8784   23.6796  -73.6188 N.am      4 UNK        -0.4224 
     55 C         -78.2219   22.8082  -74.4016 C.2       3 UNK         0.4895 
     56 O         -77.0886   22.3971  -74.1556 O.2       3 UNK        -0.5091 
     57 CA        -78.9188   22.3164  -75.6853 C.3       3 UNK         0.0250 
     58 CB        -79.5022   20.9100  -75.4742 C.3       3 UNK        -0.1996 
     59 N         -79.9743   23.2027  -76.1829 N.am      3 UNK        -0.4254 
     60 C         -79.8074   24.4737  -76.5731 C.2       2 UNK         0.5004 
     61 O         -78.7164   25.0464  -76.5788 O.2       2 UNK        -0.5226 
     62 CA        -81.0749   25.2632  -76.9562 C.3       2 UNK         0.0269 
     63 CB        -82.2803   24.3671  -77.3213 C.3       2 UNK        -0.1926 
     64 N         -81.4641   26.2318  -75.9191 N.am      2 UNK        -0.4687 
     65 C         -81.6619   25.9844  -74.6136 C.2       1 UNK         0.5165 
     66 O         -81.4878   24.8780  -74.0941 O.2       1 UNK        -0.5079 
     67 H67       -83.5134   25.9342  -70.2066 H         1 UNK         0.0900 
     68 H68       -84.4919   24.6646  -70.9438 H         1 UNK         0.0900 
     69 H69       -85.1954   26.2545  -70.6337 H         1 UNK         0.0900 
     70 H70       -82.0779   26.8448  -71.6570 H         1 UNK         0.2959 
     71 H71       -82.8558   27.7309  -74.2871 H         1 UNK         0.1079 
     72 H72       -80.0430   27.6213  -73.0639 H         1 UNK         0.0837 
     73 H73       -80.5191   28.5089  -74.4844 H         1 UNK         0.0837 
     74 H74       -80.1008   30.4706  -70.6245 H         1 UNK         0.0685 
     75 H75       -79.8529   28.7500  -70.7985 H         1 UNK         0.0685 
     76 H76       -79.2182   30.4392  -73.9707 H         1 UNK         0.1434 
     77 H77       -74.9851   30.5799  -73.4595 H         1 UNK         0.1329 
     78 H78       -77.4861   29.5541  -70.1391 H         1 UNK         0.1335 
     79 H79       -74.0258   30.4220  -71.2873 H         1 UNK         0.0680 
     80 H80       -75.0322   30.3667  -69.8601 H         1 UNK         0.0680 
     81 H81       -72.2703   27.6256  -69.7817 H         1 UNK         0.1032 
     82 H82       -72.2618   29.1401  -70.6112 H         1 UNK         0.1032 
     83 H83       -71.0002   27.5674  -71.9288 H         1 UNK         0.0461 
     84 H84       -72.8687   24.2342  -72.8955 H         1 UNK         0.3453 
     85 H85       -73.1989   25.7202  -73.7437 H         1 UNK         0.3453 
     86 H86       -73.1628   27.5063  -73.7774 H         1 UNK         0.2984 
     87 H87       -73.7916   29.4618  -74.9599 H         1 UNK         0.0554 
     88 H88       -73.0101   31.3994  -76.3023 H         1 UNK         0.0847 
     89 H89       -71.4907   31.4350  -75.4080 H         1 UNK         0.0847 
     90 H90       -73.0025   31.7798  -74.5875 H         1 UNK         0.0847 
     91 H91       -72.8991   28.1358  -76.4509 H         1 UNK         0.3141 
     92 H92       -70.1103   28.1193  -78.4150 H         1 UNK         0.0743 
     93 H93       -70.4456   25.9288  -76.2883 H         1 UNK         0.0784 
     94 H94       -69.6361   25.7383  -77.8439 H         1 UNK         0.0784 
     95 H95       -68.9571   26.8033  -76.6247 H         1 UNK         0.0784 
     96 H96       -72.1493   26.1305  -78.0667 H         1 UNK         0.3213 
     97 H97       -74.7777   27.7990  -79.7049 H         1 UNK         0.0855 
     98 H98       -73.0447   25.5059  -80.7692 H         1 UNK         0.0814 
     99 H99       -73.4573   26.9794  -81.6288 H         1 UNK         0.0814 
    100 H100      -74.7184   25.8277  -81.2209 H         1 UNK         0.0814 
    101 H101      -75.5219   26.4362  -78.1559 H         1 UNK         0.3105 
    102 H102      -75.6532   23.6422  -77.4107 H         1 UNK         0.0547 
    103 H103      -73.6465   22.6410  -76.4603 H         1 UNK         0.0837 
    104 H104      -73.3132   24.0574  -75.4818 H         1 UNK         0.0837 
    105 H105      -74.7098   23.0438  -75.1240 H         1 UNK         0.0837 
    106 H106      -76.8356   25.1081  -76.2748 H         1 UNK         0.3020 
    107 H107      -76.1819   27.6711  -73.9026 H         1 UNK         0.1245 
    108 H108      -78.2406   28.3746  -75.2843 H         1 UNK         0.0781 
    109 H109      -77.6406   27.4222  -76.5978 H         1 UNK         0.0781 
    110 H110      -77.8934   31.0879  -75.7984 H         1 UNK         0.0836 
    111 H111      -76.2694   31.6521  -75.4996 H         1 UNK         0.0836 
    112 H112      -78.2827   25.7514  -74.6620 H         1 UNK         0.3022 
    113 H113      -77.6662   23.6247  -71.9256 H         1 UNK         0.0747 
    114 H114      -79.9853   24.0400  -71.1616 H         1 UNK         0.0793 
    115 H115      -78.9137   25.3275  -70.6317 H         1 UNK         0.0793 
    116 H116      -80.0033   25.5970  -71.9802 H         1 UNK         0.0793 
    117 H117      -79.8251   23.9589  -73.8671 H         1 UNK         0.3047 
    118 H118      -78.1516   22.2566  -76.4604 H         1 UNK         0.0822 
    119 H119      -79.9119   20.5059  -76.4002 H         1 UNK         0.0807 
    120 H120      -80.2959   20.9110  -74.7260 H         1 UNK         0.0807 
    121 H121      -78.7334   20.2151  -75.1328 H         1 UNK         0.0807 
    122 H122      -80.9148   22.8355  -76.1671 H         1 UNK         0.2946 
    123 H123      -80.8089   25.8378  -77.8453 H         1 UNK         0.1144 
    124 H124      -82.0163   23.6425  -78.0932 H         1 UNK         0.0793 
    125 H125      -83.1013   24.9651  -77.7170 H         1 UNK         0.0793 
    126 H126      -82.6656   23.8164  -76.4624 H         1 UNK         0.0793 
    127 H127      -81.5938   27.1786  -76.2485 H         1 UNK         0.2896 
@<TRIPOS>BOND
     1    1    2 1    
     2    1   67 1    
     3    1   68 1    
     4    1   69 1    
     5    2    3 2    
     6    2    4 am   BACKBONE|DICT|INTERRES
     7    4    5 1    
     8    4   70 1    
     9    5    6 1    
    10    5   65 1    
    11    5   71 1    
    12    6    7 1    
    13    6   72 1    
    14    6   73 1    
    15    7    8 1    
    16    8    9 1    
    17    8   74 1    
    18    8   75 1    
    19    9   10 ar   
    20    9   14 ar   
    21   10   11 ar   
    22   10   76 1    
    23   11   12 ar   
    24   11   48 1    
    25   12   13 ar   
    26   12   77 1    
    27   13   14 ar   
    28   13   15 1    
    29   14   78 1    
    30   15   16 1    
    31   15   79 1    
    32   15   80 1    
    33   16   17 1    
    34   17   18 1    
    35   17   81 1    
    36   17   82 1    
    37   18   19 1    
    38   18   22 1    
    39   18   83 1    
    40   19   20 am   BACKBONE|DICT|INTERRES
    41   19   21 2    
    42   20   84 1    
    43   20   85 1    
    44   22   23 am   BACKBONE|DICT|INTERRES
    45   22   86 1    
    46   23   24 2    
    47   23   25 1    
    48   25   26 1    
    49   25   27 1    
    50   25   87 1    
    51   26   88 1    
    52   26   89 1    
    53   26   90 1    
    54   27   28 am   BACKBONE|DICT|INTERRES
    55   27   91 1    
    56   28   29 2    
    57   28   30 1    
    58   30   31 1    
    59   30   32 1    
    60   30   92 1    
    61   31   93 1    
    62   31   94 1    
    63   31   95 1    
    64   32   33 am   BACKBONE|DICT|INTERRES
    65   32   96 1    
    66   33   34 2    
    67   33   35 1    
    68   35   36 1    
    69   35   37 1    
    70   35   97 1    
    71   36   98 1    
    72   36   99 1    
    73   36  100 1    
    74   37   38 am   BACKBONE|DICT|INTERRES
    75   37  101 1    
    76   38   39 2    
    77   38   40 1    
    78   40   41 1    
    79   40   42 1    
    80   40  102 1    
    81   41  103 1    
    82   41  104 1    
    83   41  105 1    
    84   42   43 am   BACKBONE|DICT|INTERRES
    85   42  106 1    
    86   43   44 2    
    87   43   45 1    
    88   45   46 1    
    89   45   49 1    
    90   45  107 1    
    91   46   47 1    
    92   46  108 1    
    93   46  109 1    
    94   47   48 1    
    95   48  110 1    
    96   48  111 1    
    97   49   50 am   BACKBONE|DICT|INTERRES
    98   49  112 1    
    99   50   51 2    
   100   50   52 1    
   101   52   53 1    
   102   52   54 1    
   103   52  113 1    
   104   53  114 1    
   105   53  115 1    
   106   53  116 1    
   107   54   55 am   BACKBONE|DICT|INTERRES
   108   54  117 1    
   109   55   56 2    
   110   55   57 1    
   111   57   58 1    
   112   57   59 1    
   113   57  118 1    
   114   58  119 1    
   115   58  120 1    
   116   58  121 1    
   117   59   60 am   BACKBONE|DICT|INTERRES
   118   59  122 1    
   119   60   61 2    
   120   60   62 1    
   121   62   63 1    
   122   62   64 1    
   123   62  123 1    
   124   63  124 1    
   125   63  125 1    
   126   63  126 1    
   127   64   65 am   BACKBONE|DICT|INTERRES
   128   64  127 1    
   129   65   66 2    
@<TRIPOS>SUBSTRUCTURE
     1 UNK         1 GROUP             0       ****    0 ROOT    
