@<TRIPOS>MOLECULE
3R135
127   129    1
SMALL
USER_CHARGES


@<TRIPOS>ATOM
      1 CA        -84.1505   27.3475  -69.8251 C.3       0 UNK        -0.1998 
      2 C         -83.0837   27.4281  -70.9063 C.2       0 UNK         0.4909 
      3 O         -81.9964   26.8761  -70.7322 O.2       0 UNK        -0.5240 
      4 N         -83.3906   28.1038  -72.0236 N.am      1 UNK        -0.4739 
      5 CA        -82.5422   28.3191  -73.2065 C.3       1 UNK         0.0864 
      6 C6        -81.1940   29.0116  -72.8691 C.3       11 UNK        -0.0881 
      7 S7        -80.4428   29.8877  -74.2829 S.3       11 UNK        -0.2682 
      8 C8        -79.2431   28.6684  -74.9086 C.3       11 UNK         0.0289 
      9 C9        -77.9958   28.5634  -74.0422 C.ar      11 UNK        -0.0687 
     10 C10       -77.9343   27.6316  -73.0031 C.ar      11 UNK        -0.0823 
     11 C11       -76.7785   27.5000  -72.2283 C.ar      11 UNK        -0.0830 
     12 C12       -75.6611   28.2872  -72.5239 C.ar      11 UNK        -0.1021 
     13 C13       -75.7048   29.2152  -73.5694 C.ar      11 UNK        -0.0753 
     14 C14       -76.8808   29.3625  -74.3120 C.ar      11 UNK        -0.0933 
     15 C15       -74.4765   30.0420  -73.9154 C.3       11 UNK         0.0166 
     16 S16       -74.2806   31.4476  -72.7758 S.3       11 UNK        -0.2615 
     17 C17       -73.4269   32.6826  -73.8224 C.3       11 UNK        -0.0865 
     18 CA        -71.9025   32.8926  -73.5748 C.3       10 UNK         0.0862 
     19 C         -71.5197   33.2614  -72.1072 C.2       10 UNK         0.5551 
     20 N         -70.3777   32.8284  -71.5887 N.am      10 UNK        -0.7319 
     21 O         -72.2419   34.0040  -71.4460 O.2       10 UNK        -0.5018 
     22 N         -71.0567   31.9081  -74.2774 N.am      10 UNK        -0.4509 
     23 C         -70.7839   30.6448  -73.9295 C.2       10 UNK         0.4899 
     24 O         -71.1610   30.1017  -72.8902 O.2       10 UNK        -0.4839 
     25 CA        -69.8689   29.8768  -74.8998 C.3       9 UNK         0.0222 
     26 CB        -68.3921   30.0950  -74.5302 C.3       9 UNK        -0.1966 
     27 N         -70.1567   28.4417  -74.8942 N.am      9 UNK        -0.4218 
     28 C         -71.2576   27.8854  -75.4149 C.2       9 UNK         0.5020 
     29 O         -72.1172   28.5161  -76.0357 O.2       9 UNK        -0.5274 
     30 CA        -71.4267   26.3778  -75.1576 C.3       8 UNK         0.0270 
     31 CB        -71.8819   26.1351  -73.7074 C.3       8 UNK        -0.1976 
     32 N         -72.3964   25.7677  -76.0703 N.am      8 UNK        -0.4313 
     33 C         -72.1630   25.4876  -77.3615 C.2       8 UNK         0.5041 
     34 O         -71.0677   25.6517  -77.9024 O.2       8 UNK        -0.5577 
     35 CA        -73.3221   24.9055  -78.1996 C.3       7 UNK         0.0284 
     36 CB        -73.1555   23.3860  -78.3657 C.3       7 UNK        -0.1958 
     37 N         -74.6456   25.1740  -77.6362 N.am      7 UNK        -0.4454 
     38 C         -75.2355   26.3758  -77.5964 C.2       7 UNK         0.5089 
     39 O         -74.8006   27.3642  -78.1877 O.2       7 UNK        -0.5125 
     40 CA        -76.5187   26.5143  -76.7504 C.3       6 UNK         0.0408 
     41 CB        -77.7363   26.7248  -77.6643 C.3       6 UNK        -0.1791 
     42 N         -76.8008   25.4136  -75.8156 N.am      6 UNK        -0.4762 
     43 C         -75.9899   24.9668  -74.8423 C.2       6 UNK         0.5007 
     44 O         -74.8559   25.4041  -74.6580 O.2       6 UNK        -0.5032 
     45 CA        -76.4829   23.7798  -73.9875 C.3       5 UNK         0.0783 
     46 C46       -77.1386   24.2157  -72.6564 C.3       11 UNK        -0.0857 
     47 S47       -75.9522   24.9429  -71.4748 S.3       11 UNK        -0.2512 
     48 C48       -76.7489   26.5263  -71.0578 C.3       11 UNK         0.0225 
     49 N         -77.3870   22.9202  -74.7527 N.am      5 UNK        -0.4615 
     50 C         -76.9915   21.9750  -75.6151 C.2       4 UNK         0.5053 
     51 O         -75.8123   21.6973  -75.8328 O.2       4 UNK        -0.5105 
     52 CA        -78.0999   21.2176  -76.3677 C.3       4 UNK         0.0263 
     53 CB        -78.5480   19.9847  -75.5665 C.3       4 UNK        -0.1981 
     54 N         -79.2632   22.0615  -76.6542 N.am      4 UNK        -0.4224 
     55 C         -79.2655   23.0596  -77.5491 C.2       3 UNK         0.4895 
     56 O         -78.3164   23.3123  -78.2904 O.2       3 UNK        -0.5091 
     57 CA        -80.5261   23.9406  -77.6178 C.3       3 UNK         0.0250 
     58 CB        -81.4710   23.4372  -78.7206 C.3       3 UNK        -0.1996 
     59 N         -81.2663   24.0439  -76.3539 N.am      3 UNK        -0.4254 
     60 C         -80.7912   24.5821  -75.2217 C.2       2 UNK         0.5004 
     61 O         -79.6354   24.9882  -75.0862 O.2       2 UNK        -0.5226 
     62 CA        -81.7508   24.6157  -74.0206 C.3       2 UNK         0.0269 
     63 CB        -81.2754   23.6406  -72.9311 C.3       2 UNK        -0.1926 
     64 N         -81.8917   25.9515  -73.4354 N.am      2 UNK        -0.4687 
     65 C         -82.3794   27.0357  -74.0542 C.2       1 UNK         0.5165 
     66 O         -82.7489   27.0387  -75.2293 O.2       1 UNK        -0.5079 
     67 H67       -83.7773   27.7822  -68.8983 H         1 UNK         0.0900 
     68 H68       -85.0594   27.8786  -70.1070 H         1 UNK         0.0900 
     69 H69       -84.4109   26.3070  -69.6329 H         1 UNK         0.0900 
     70 H70       -84.3165   28.5034  -72.0994 H         1 UNK         0.2959 
     71 H71       -83.1125   29.0149  -73.8249 H         1 UNK         0.1079 
     72 H72       -80.4914   28.3150  -72.4190 H         1 UNK         0.0837 
     73 H73       -81.3647   29.7705  -72.1040 H         1 UNK         0.0837 
     74 H74       -79.7190   27.6926  -75.0037 H         1 UNK         0.0685 
     75 H75       -78.9582   28.9606  -75.9201 H         1 UNK         0.0685 
     76 H76       -78.7880   27.0011  -72.8014 H         1 UNK         0.1434 
     77 H77       -74.7563   28.1785  -71.9416 H         1 UNK         0.1329 
     78 H78       -76.9193   30.0784  -75.1214 H         1 UNK         0.1335 
     79 H79       -73.5885   29.4117  -73.8658 H         1 UNK         0.0680 
     80 H80       -74.5444   30.3913  -74.9464 H         1 UNK         0.0680 
     81 H81       -73.9400   33.6312  -73.6545 H         1 UNK         0.1032 
     82 H82       -73.6012   32.4613  -74.8758 H         1 UNK         0.1032 
     83 H83       -71.6623   33.8138  -74.1074 H         1 UNK         0.0461 
     84 H84       -69.7894   32.2022  -72.1138 H         1 UNK         0.3453 
     85 H85       -70.1303   33.0890  -70.6472 H         1 UNK         0.3453 
     86 H86       -70.6425   32.2525  -75.1319 H         1 UNK         0.2984 
     87 H87       -70.0330   30.2525  -75.9123 H         1 UNK         0.0554 
     88 H88       -68.1320   31.1540  -74.5606 H         1 UNK         0.0847 
     89 H89       -67.7279   29.5820  -75.2261 H         1 UNK         0.0847 
     90 H90       -68.1689   29.7345  -73.5250 H         1 UNK         0.0847 
     91 H91       -69.5269   27.8594  -74.3614 H         1 UNK         0.3141 
     92 H92       -70.4614   25.8893  -75.3070 H         1 UNK         0.0743 
     93 H93       -72.8097   26.6645  -73.4841 H         1 UNK         0.0784 
     94 H94       -72.0476   25.0754  -73.5126 H         1 UNK         0.0784 
     95 H95       -71.1337   26.4826  -72.9940 H         1 UNK         0.0784 
     96 H96       -73.3352   25.6402  -75.6964 H         1 UNK         0.3213 
     97 H97       -73.2730   25.3671  -79.1883 H         1 UNK         0.0855 
     98 H98       -73.2163   22.8663  -77.4083 H         1 UNK         0.0814 
     99 H99       -72.1875   23.1450  -78.8073 H         1 UNK         0.0814 
    100 H100      -73.9215   22.9715  -79.0215 H         1 UNK         0.0814 
    101 H101      -75.0890   24.4204  -77.1306 H         1 UNK         0.3105 
    102 H102      -76.3892   27.4099  -76.1445 H         1 UNK         0.0547 
    103 H103      -77.8457   25.9093  -78.3788 H         1 UNK         0.0837 
    104 H104      -77.6344   27.6455  -78.2400 H         1 UNK         0.0837 
    105 H105      -78.6620   26.7983  -77.0953 H         1 UNK         0.0837 
    106 H106      -77.7419   25.0360  -75.8432 H         1 UNK         0.3020 
    107 H107      -75.5966   23.1918  -73.7359 H         1 UNK         0.1245 
    108 H108      -77.5737   23.3454  -72.1626 H         1 UNK         0.0781 
    109 H109      -77.9730   24.8901  -72.8411 H         1 UNK         0.0781 
    110 H110      -76.2082   26.9797  -70.2258 H         1 UNK         0.0836 
    111 H111      -77.7589   26.3366  -70.6904 H         1 UNK         0.0836 
    112 H112      -78.3716   23.1358  -74.6798 H         1 UNK         0.3022 
    113 H113      -77.6819   20.8751  -77.3169 H         1 UNK         0.0747 
    114 H114      -79.2830   19.3985  -76.1184 H         1 UNK         0.0793 
    115 H115      -77.7024   19.3275  -75.3585 H         1 UNK         0.0793 
    116 H116      -78.9889   20.2612  -74.6078 H         1 UNK         0.0793 
    117 H117      -80.0958   21.9043  -76.1054 H         1 UNK         0.3047 
    118 H118      -80.2008   24.9475  -77.8859 H         1 UNK         0.0822 
    119 H119      -82.3188   24.1093  -78.8550 H         1 UNK         0.0807 
    120 H120      -81.8607   22.4431  -78.4975 H         1 UNK         0.0807 
    121 H121      -80.9544   23.3767  -79.6798 H         1 UNK         0.0807 
    122 H122      -82.2250   23.7261  -76.3737 H         1 UNK         0.2946 
    123 H123      -82.7423   24.3010  -74.3530 H         1 UNK         0.1144 
    124 H124      -81.1699   22.6290  -73.3254 H         1 UNK         0.0793 
    125 H125      -81.9861   23.5926  -72.1057 H         1 UNK         0.0793 
    126 H126      -80.3088   23.9349  -72.5207 H         1 UNK         0.0793 
    127 H127      -81.6610   26.0524  -72.4510 H         1 UNK         0.2896 
@<TRIPOS>BOND
     1    1    2 1    
     2    1   67 1    
     3    1   68 1    
     4    1   69 1    
     5    2    3 2    
     6    2    4 am   BACKBONE|DICT|INTERRES
     7    4    5 1    
     8    4   70 1    
     9    5    6 1    
    10    5   65 1    
    11    5   71 1    
    12    6    7 1    
    13    6   72 1    
    14    6   73 1    
    15    7    8 1    
    16    8    9 1    
    17    8   74 1    
    18    8   75 1    
    19    9   10 ar   
    20    9   14 ar   
    21   10   11 ar   
    22   10   76 1    
    23   11   12 ar   
    24   11   48 1    
    25   12   13 ar   
    26   12   77 1    
    27   13   14 ar   
    28   13   15 1    
    29   14   78 1    
    30   15   16 1    
    31   15   79 1    
    32   15   80 1    
    33   16   17 1    
    34   17   18 1    
    35   17   81 1    
    36   17   82 1    
    37   18   19 1    
    38   18   22 1    
    39   18   83 1    
    40   19   20 am   BACKBONE|DICT|INTERRES
    41   19   21 2    
    42   20   84 1    
    43   20   85 1    
    44   22   23 am   BACKBONE|DICT|INTERRES
    45   22   86 1    
    46   23   24 2    
    47   23   25 1    
    48   25   26 1    
    49   25   27 1    
    50   25   87 1    
    51   26   88 1    
    52   26   89 1    
    53   26   90 1    
    54   27   28 am   BACKBONE|DICT|INTERRES
    55   27   91 1    
    56   28   29 2    
    57   28   30 1    
    58   30   31 1    
    59   30   32 1    
    60   30   92 1    
    61   31   93 1    
    62   31   94 1    
    63   31   95 1    
    64   32   33 am   BACKBONE|DICT|INTERRES
    65   32   96 1    
    66   33   34 2    
    67   33   35 1    
    68   35   36 1    
    69   35   37 1    
    70   35   97 1    
    71   36   98 1    
    72   36   99 1    
    73   36  100 1    
    74   37   38 am   BACKBONE|DICT|INTERRES
    75   37  101 1    
    76   38   39 2    
    77   38   40 1    
    78   40   41 1    
    79   40   42 1    
    80   40  102 1    
    81   41  103 1    
    82   41  104 1    
    83   41  105 1    
    84   42   43 am   BACKBONE|DICT|INTERRES
    85   42  106 1    
    86   43   44 2    
    87   43   45 1    
    88   45   46 1    
    89   45   49 1    
    90   45  107 1    
    91   46   47 1    
    92   46  108 1    
    93   46  109 1    
    94   47   48 1    
    95   48  110 1    
    96   48  111 1    
    97   49   50 am   BACKBONE|DICT|INTERRES
    98   49  112 1    
    99   50   51 2    
   100   50   52 1    
   101   52   53 1    
   102   52   54 1    
   103   52  113 1    
   104   53  114 1    
   105   53  115 1    
   106   53  116 1    
   107   54   55 am   BACKBONE|DICT|INTERRES
   108   54  117 1    
   109   55   56 2    
   110   55   57 1    
   111   57   58 1    
   112   57   59 1    
   113   57  118 1    
   114   58  119 1    
   115   58  120 1    
   116   58  121 1    
   117   59   60 am   BACKBONE|DICT|INTERRES
   118   59  122 1    
   119   60   61 2    
   120   60   62 1    
   121   62   63 1    
   122   62   64 1    
   123   62  123 1    
   124   63  124 1    
   125   63  125 1    
   126   63  126 1    
   127   64   65 am   BACKBONE|DICT|INTERRES
   128   64  127 1    
   129   65   66 2    
@<TRIPOS>SUBSTRUCTURE
     1 UNK         1 GROUP             0       ****    0 ROOT    
