@<TRIPOS>MOLECULE
3R135
127   129    1
SMALL
USER_CHARGES


@<TRIPOS>ATOM
      1 CA        -79.6124   28.1399  -70.0247 C.3       0 UNK        -0.1998 
      2 C         -80.8356   28.0547  -70.9226 C.2       0 UNK         0.4909 
      3 O         -81.9593   27.9793  -70.4246 O.2       0 UNK        -0.5240 
      4 N         -80.6241   28.0618  -72.2454 N.am      1 UNK        -0.4739 
      5 CA        -81.6838   27.9652  -73.2595 C.3       1 UNK         0.0864 
      6 C6        -81.1816   28.3458  -74.6741 C.3       11 UNK        -0.0881 
      7 S7        -80.6321   30.0824  -74.7737 S.3       11 UNK        -0.2682 
      8 C8        -78.8633   29.9039  -75.1625 C.3       11 UNK         0.0289 
      9 C9        -78.0600   29.4328  -73.9602 C.ar      11 UNK        -0.0687 
     10 C10       -77.6479   28.1025  -73.8595 C.ar      11 UNK        -0.0823 
     11 C11       -76.8771   27.6753  -72.7738 C.ar      11 UNK        -0.0830 
     12 C12       -76.5356   28.5906  -71.7716 C.ar      11 UNK        -0.1021 
     13 C13       -76.9805   29.9150  -71.8403 C.ar      11 UNK        -0.0753 
     14 C14       -77.7297   30.3316  -72.9442 C.ar      11 UNK        -0.0933 
     15 C15       -76.7262   30.8828  -70.6934 C.3       11 UNK         0.0166 
     16 S16       -75.7278   32.3186  -71.1958 S.3       11 UNK        -0.2615 
     17 C17       -74.0253   31.7074  -70.9716 C.3       11 UNK        -0.0865 
     18 CA        -73.2398   31.6425  -72.3056 C.3       10 UNK         0.0862 
     19 C         -71.7071   31.5585  -72.0353 C.2       10 UNK         0.5551 
     20 N         -71.0168   30.4753  -72.3702 N.am      10 UNK        -0.7319 
     21 O         -71.1296   32.5073  -71.5101 O.2       10 UNK        -0.5018 
     22 N         -73.7623   30.5906  -73.1929 N.am      10 UNK        -0.4509 
     23 C         -73.5392   30.5401  -74.5100 C.2       10 UNK         0.4899 
     24 O         -72.9996   31.4398  -75.1577 O.2       10 UNK        -0.4839 
     25 CA        -73.9311   29.2331  -75.2188 C.3       9 UNK         0.0222 
     26 CB        -74.9425   29.4870  -76.3483 C.3       9 UNK        -0.1966 
     27 N         -72.7368   28.5770  -75.7599 N.am      9 UNK        -0.4218 
     28 C         -71.7177   28.1199  -75.0199 C.2       9 UNK         0.5020 
     29 O         -71.7459   28.0603  -73.7885 O.2       9 UNK        -0.5274 
     30 CA        -70.4522   27.6827  -75.7810 C.3       8 UNK         0.0270 
     31 CB        -69.2713   27.3816  -74.8389 C.3       8 UNK        -0.1976 
     32 N         -70.6900   26.5104  -76.6195 N.am      8 UNK        -0.4313 
     33 C         -71.3079   26.4969  -77.8040 C.2       8 UNK         0.5041 
     34 O         -71.7876   27.5026  -78.3301 O.2       8 UNK        -0.5577 
     35 CA        -71.4239   25.1364  -78.5158 C.3       7 UNK         0.0284 
     36 CB        -70.0774   24.7098  -79.1326 C.3       7 UNK        -0.1958 
     37 N         -72.0006   24.0737  -77.6801 N.am      7 UNK        -0.4454 
     38 C         -71.5224   23.5050  -76.5642 C.2       7 UNK         0.5089 
     39 O         -70.4248   23.7744  -76.0721 O.2       7 UNK        -0.5125 
     40 CA        -72.4735   22.5225  -75.8497 C.3       6 UNK         0.0408 
     41 CB        -71.8248   21.8599  -74.6205 C.3       6 UNK        -0.1791 
     42 N         -73.7077   23.1964  -75.4315 N.am      6 UNK        -0.4762 
     43 C         -74.7176   23.5286  -76.2452 C.2       6 UNK         0.5007 
     44 O         -74.7478   23.2313  -77.4445 O.2       6 UNK        -0.5032 
     45 CA        -75.8405   24.3873  -75.6429 C.3       5 UNK         0.0783 
     46 C46       -75.3337   25.7938  -75.2186 C.3       11 UNK        -0.0857 
     47 S47       -74.8691   25.8565  -73.4557 S.3       11 UNK        -0.2512 
     48 C48       -76.4653   26.2136  -72.6515 C.3       11 UNK         0.0225 
     49 N         -76.9206   24.4538  -76.6229 N.am      5 UNK        -0.4615 
     50 C         -78.2106   24.6615  -76.3507 C.2       4 UNK         0.5053 
     51 O         -78.6329   24.9225  -75.2223 O.2       4 UNK        -0.5105 
     52 CA        -79.1977   24.5552  -77.5255 C.3       4 UNK         0.0263 
     53 CB        -78.7446   23.5822  -78.6365 C.3       4 UNK        -0.1981 
     54 N         -80.4900   24.1404  -76.9929 N.am      4 UNK        -0.4224 
     55 C         -81.6923   24.3738  -77.5235 C.2       3 UNK         0.4895 
     56 O         -81.8639   24.9453  -78.6007 O.2       3 UNK        -0.5091 
     57 CA        -82.9213   23.9160  -76.7131 C.3       3 UNK         0.0250 
     58 CB        -83.2952   22.4580  -77.0447 C.3       3 UNK        -0.1996 
     59 N         -82.8101   24.1353  -75.2614 N.am      3 UNK        -0.4254 
     60 C         -81.9977   23.5511  -74.3682 C.2       2 UNK         0.5004 
     61 O         -81.2012   22.6546  -74.6513 O.2       2 UNK        -0.5226 
     62 CA        -82.0399   24.1229  -72.9373 C.3       2 UNK         0.0269 
     63 CB        -81.1645   23.3232  -71.9542 C.3       2 UNK        -0.1926 
     64 N         -81.6085   25.5237  -72.9134 N.am      2 UNK        -0.4687 
     65 C         -82.3483   26.5737  -73.2980 C.2       1 UNK         0.5165 
     66 O         -83.5100   26.4691  -73.6968 O.2       1 UNK        -0.5079 
     67 H67       -78.7999   27.5273  -70.4131 H         1 UNK         0.0900 
     68 H68       -79.8465   27.7853  -69.0212 H         1 UNK         0.0900 
     69 H69       -79.2691   29.1711  -69.9506 H         1 UNK         0.0900 
     70 H70       -79.6842   28.1818  -72.6000 H         1 UNK         0.2959 
     71 H71       -82.4694   28.6716  -72.9809 H         1 UNK         0.1079 
     72 H72       -81.9818   28.2261  -75.4077 H         1 UNK         0.0837 
     73 H73       -80.3824   27.6751  -74.9950 H         1 UNK         0.0837 
     74 H74       -78.7380   29.2248  -76.0074 H         1 UNK         0.0685 
     75 H75       -78.4791   30.8703  -75.4925 H         1 UNK         0.0685 
     76 H76       -77.9375   27.3982  -74.6259 H         1 UNK         0.1434 
     77 H77       -75.9616   28.2590  -70.9169 H         1 UNK         0.1329 
     78 H78       -78.0726   31.3558  -73.0033 H         1 UNK         0.1335 
     79 H79       -77.6894   31.2480  -70.3344 H         1 UNK         0.0680 
     80 H80       -76.2619   30.3809  -69.8433 H         1 UNK         0.0680 
     81 H81       -74.0247   30.7335  -70.4795 H         1 UNK         0.1032 
     82 H82       -73.5430   32.3928  -70.2713 H         1 UNK         0.1032 
     83 H83       -73.3873   32.5972  -72.8148 H         1 UNK         0.0461 
     84 H84       -71.4632   29.6735  -72.8064 H         1 UNK         0.3453 
     85 H85       -70.0279   30.4511  -72.1812 H         1 UNK         0.3453 
     86 H86       -74.2109   29.8065  -72.7424 H         1 UNK         0.2984 
     87 H87       -74.3937   28.5622  -74.4938 H         1 UNK         0.0554 
     88 H88       -75.2550   28.5558  -76.8205 H         1 UNK         0.0847 
     89 H89       -74.5303   30.1346  -77.1231 H         1 UNK         0.0847 
     90 H90       -75.8395   29.9717  -75.9616 H         1 UNK         0.0847 
     91 H91       -72.6246   28.5615  -76.7688 H         1 UNK         0.3141 
     92 H92       -70.1579   28.5160  -76.4227 H         1 UNK         0.0743 
     93 H93       -69.4864   26.5401  -74.1788 H         1 UNK         0.0784 
     94 H94       -68.3669   27.1447  -75.3997 H         1 UNK         0.0784 
     95 H95       -69.0441   28.2425  -74.2087 H         1 UNK         0.0784 
     96 H96       -70.3861   25.6100  -76.2529 H         1 UNK         0.3213 
     97 H97       -72.1275   25.2762  -79.3384 H         1 UNK         0.0855 
     98 H98       -69.7056   25.4735  -79.8171 H         1 UNK         0.0814 
     99 H99       -70.1787   23.7864  -79.7028 H         1 UNK         0.0814 
    100 H100      -69.3078   24.5530  -78.3764 H         1 UNK         0.0814 
    101 H101      -72.9451   23.7955  -77.9349 H         1 UNK         0.3105 
    102 H102      -72.7221   21.7317  -76.5608 H         1 UNK         0.0547 
    103 H103      -70.9132   21.3294  -74.8990 H         1 UNK         0.0837 
    104 H104      -71.5550   22.5932  -73.8594 H         1 UNK         0.0837 
    105 H105      -72.4939   21.1314  -74.1627 H         1 UNK         0.0837 
    106 H106      -73.7328   23.5292  -74.4767 H         1 UNK         0.3020 
    107 H107      -76.2253   23.8462  -74.7748 H         1 UNK         0.1245 
    108 H108      -76.0860   26.5537  -75.4110 H         1 UNK         0.0781 
    109 H109      -74.4741   26.1114  -75.8128 H         1 UNK         0.0781 
    110 H110      -76.3864   25.9443  -71.5973 H         1 UNK         0.0836 
    111 H111      -77.2394   25.5655  -73.0637 H         1 UNK         0.0836 
    112 H112      -76.6364   24.1842  -77.5569 H         1 UNK         0.3022 
    113 H113      -79.2980   25.5570  -77.9478 H         1 UNK         0.0747 
    114 H114      -79.5030   23.4876  -79.4138 H         1 UNK         0.0793 
    115 H115      -77.8360   23.9298  -79.1291 H         1 UNK         0.0793 
    116 H116      -78.5506   22.5839  -78.2420 H         1 UNK         0.0793 
    117 H117      -80.4557   23.6835  -76.0834 H         1 UNK         0.3047 
    118 H118      -83.7526   24.5450  -77.0360 H         1 UNK         0.0822 
    119 H119      -84.1993   22.1509  -76.5191 H         1 UNK         0.0807 
    120 H120      -82.4999   21.7602  -76.7812 H         1 UNK         0.0807 
    121 H121      -83.4850   22.3404  -78.1124 H         1 UNK         0.0807 
    122 H122      -83.3632   24.9106  -74.9063 H         1 UNK         0.2946 
    123 H123      -83.0746   24.0616  -72.5918 H         1 UNK         0.1144 
    124 H124      -81.4657   22.2752  -71.9266 H         1 UNK         0.0793 
    125 H125      -81.2522   23.7112  -70.9392 H         1 UNK         0.0793 
    126 H126      -80.1107   23.3530  -72.2354 H         1 UNK         0.0793 
    127 H127      -80.6529   25.6966  -72.6370 H         1 UNK         0.2896 
@<TRIPOS>BOND
     1    1    2 1    
     2    1   67 1    
     3    1   68 1    
     4    1   69 1    
     5    2    3 2    
     6    2    4 am   BACKBONE|DICT|INTERRES
     7    4    5 1    
     8    4   70 1    
     9    5    6 1    
    10    5   65 1    
    11    5   71 1    
    12    6    7 1    
    13    6   72 1    
    14    6   73 1    
    15    7    8 1    
    16    8    9 1    
    17    8   74 1    
    18    8   75 1    
    19    9   10 ar   
    20    9   14 ar   
    21   10   11 ar   
    22   10   76 1    
    23   11   12 ar   
    24   11   48 1    
    25   12   13 ar   
    26   12   77 1    
    27   13   14 ar   
    28   13   15 1    
    29   14   78 1    
    30   15   16 1    
    31   15   79 1    
    32   15   80 1    
    33   16   17 1    
    34   17   18 1    
    35   17   81 1    
    36   17   82 1    
    37   18   19 1    
    38   18   22 1    
    39   18   83 1    
    40   19   20 am   BACKBONE|DICT|INTERRES
    41   19   21 2    
    42   20   84 1    
    43   20   85 1    
    44   22   23 am   BACKBONE|DICT|INTERRES
    45   22   86 1    
    46   23   24 2    
    47   23   25 1    
    48   25   26 1    
    49   25   27 1    
    50   25   87 1    
    51   26   88 1    
    52   26   89 1    
    53   26   90 1    
    54   27   28 am   BACKBONE|DICT|INTERRES
    55   27   91 1    
    56   28   29 2    
    57   28   30 1    
    58   30   31 1    
    59   30   32 1    
    60   30   92 1    
    61   31   93 1    
    62   31   94 1    
    63   31   95 1    
    64   32   33 am   BACKBONE|DICT|INTERRES
    65   32   96 1    
    66   33   34 2    
    67   33   35 1    
    68   35   36 1    
    69   35   37 1    
    70   35   97 1    
    71   36   98 1    
    72   36   99 1    
    73   36  100 1    
    74   37   38 am   BACKBONE|DICT|INTERRES
    75   37  101 1    
    76   38   39 2    
    77   38   40 1    
    78   40   41 1    
    79   40   42 1    
    80   40  102 1    
    81   41  103 1    
    82   41  104 1    
    83   41  105 1    
    84   42   43 am   BACKBONE|DICT|INTERRES
    85   42  106 1    
    86   43   44 2    
    87   43   45 1    
    88   45   46 1    
    89   45   49 1    
    90   45  107 1    
    91   46   47 1    
    92   46  108 1    
    93   46  109 1    
    94   47   48 1    
    95   48  110 1    
    96   48  111 1    
    97   49   50 am   BACKBONE|DICT|INTERRES
    98   49  112 1    
    99   50   51 2    
   100   50   52 1    
   101   52   53 1    
   102   52   54 1    
   103   52  113 1    
   104   53  114 1    
   105   53  115 1    
   106   53  116 1    
   107   54   55 am   BACKBONE|DICT|INTERRES
   108   54  117 1    
   109   55   56 2    
   110   55   57 1    
   111   57   58 1    
   112   57   59 1    
   113   57  118 1    
   114   58  119 1    
   115   58  120 1    
   116   58  121 1    
   117   59   60 am   BACKBONE|DICT|INTERRES
   118   59  122 1    
   119   60   61 2    
   120   60   62 1    
   121   62   63 1    
   122   62   64 1    
   123   62  123 1    
   124   63  124 1    
   125   63  125 1    
   126   63  126 1    
   127   64   65 am   BACKBONE|DICT|INTERRES
   128   64  127 1    
   129   65   66 2    
@<TRIPOS>SUBSTRUCTURE
     1 UNK         1 GROUP             0       ****    0 ROOT    
