@<TRIPOS>MOLECULE
3R135
127   129    1
SMALL
USER_CHARGES


@<TRIPOS>ATOM
      1 CA        -82.3777   25.7759  -73.2052 C.3       0 UNK        -0.1998 
      2 C         -82.0459   26.8982  -74.1765 C.2       0 UNK         0.4909 
      3 O         -82.9400   27.4360  -74.8300 O.2       0 UNK        -0.5240 
      4 N         -80.7579   27.2363  -74.3036 N.am      1 UNK        -0.4739 
      5 CA        -80.2283   28.2613  -75.2114 C.3       1 UNK         0.0864 
      6 C6        -78.9495   28.9116  -74.6234 C.3       11 UNK        -0.0881 
      7 S7        -79.3068   30.2122  -73.3987 S.3       11 UNK        -0.2682 
      8 C8        -79.3750   29.2926  -71.8311 C.3       11 UNK         0.0289 
      9 C9        -78.0050   28.9226  -71.2747 C.ar      11 UNK        -0.0687 
     10 C10       -77.5856   27.5883  -71.2691 C.ar      11 UNK        -0.0823 
     11 C11       -76.4107   27.2146  -70.6081 C.ar      11 UNK        -0.0830 
     12 C12       -75.6377   28.1944  -69.9757 C.ar      11 UNK        -0.1021 
     13 C13       -76.0363   29.5356  -69.9865 C.ar      11 UNK        -0.0753 
     14 C14       -77.2149   29.8944  -70.6499 C.ar      11 UNK        -0.0933 
     15 C15       -75.2662   30.5669  -69.1682 C.3       11 UNK         0.0166 
     16 S16       -73.5899   30.8945  -69.7997 S.3       11 UNK        -0.2615 
     17 C17       -73.8910   32.1708  -71.0766 C.3       11 UNK        -0.0865 
     18 CA        -73.2215   31.8471  -72.4378 C.3       10 UNK         0.0862 
     19 C         -71.6715   32.0177  -72.3967 C.2       10 UNK         0.5551 
     20 N         -70.8738   31.0010  -72.7043 N.am      10 UNK        -0.7319 
     21 O         -71.1848   33.1038  -72.0910 O.2       10 UNK        -0.5018 
     22 N         -73.7018   30.5586  -72.9459 N.am      10 UNK        -0.4509 
     23 C         -73.6180   30.1285  -74.2062 C.2       10 UNK         0.4899 
     24 O         -73.1800   30.7903  -75.1493 O.2       10 UNK        -0.4839 
     25 CA        -74.1621   28.7139  -74.4329 C.3       9 UNK         0.0222 
     26 CB        -75.6221   28.7850  -74.8854 C.3       9 UNK        -0.1966 
     27 N         -73.3805   27.9258  -75.3882 N.am      9 UNK        -0.4218 
     28 C         -72.0934   27.5842  -75.2154 C.2       9 UNK         0.5020 
     29 O         -71.4278   27.9368  -74.2389 O.2       9 UNK        -0.5274 
     30 CA        -71.4318   26.6698  -76.2651 C.3       8 UNK         0.0270 
     31 CB        -70.8145   25.4277  -75.5966 C.3       8 UNK        -0.1976 
     32 N         -72.3617   26.2276  -77.3079 N.am      8 UNK        -0.4313 
     33 C         -72.5174   26.8297  -78.4955 C.2       8 UNK         0.5041 
     34 O         -71.8682   27.8153  -78.8480 O.2       8 UNK        -0.5577 
     35 CA        -73.5701   26.2518  -79.4641 C.3       7 UNK         0.0284 
     36 CB        -72.8873   25.4172  -80.5602 C.3       7 UNK        -0.1958 
     37 N         -74.6126   25.4405  -78.8265 N.am      7 UNK        -0.4454 
     38 C         -75.4967   25.8923  -77.9268 C.2       7 UNK         0.5089 
     39 O         -75.5124   27.0564  -77.5291 O.2       7 UNK        -0.5125 
     40 CA        -76.4898   24.8733  -77.3267 C.3       6 UNK         0.0408 
     41 CB        -76.5000   23.5017  -78.0372 C.3       6 UNK        -0.1791 
     42 N         -76.2866   24.6845  -75.8856 N.am      6 UNK        -0.4762 
     43 C         -75.1314   24.3866  -75.2647 C.2       6 UNK         0.5007 
     44 O         -74.0544   24.2536  -75.8488 O.2       6 UNK        -0.5032 
     45 CA        -75.1781   24.1979  -73.7341 C.3       5 UNK         0.0783 
     46 C46       -74.8040   25.5159  -73.0207 C.3       11 UNK        -0.0857 
     47 S47       -74.4567   25.3026  -71.2472 S.3       11 UNK        -0.2512 
     48 C48       -76.0452   25.7402  -70.4727 C.3       11 UNK         0.0225 
     49 N         -76.4782   23.6838  -73.2956 N.am      5 UNK        -0.4615 
     50 C         -76.8874   22.4225  -73.4689 C.2       4 UNK         0.5053 
     51 O         -76.1812   21.5292  -73.9370 O.2       4 UNK        -0.5105 
     52 CA        -78.3435   22.1053  -73.0934 C.3       4 UNK         0.0263 
     53 CB        -78.8721   22.9152  -71.8860 C.3       4 UNK        -0.1981 
     54 N         -79.2190   22.2344  -74.2633 N.am      4 UNK        -0.4224 
     55 C         -79.5035   23.3516  -74.9478 C.2       3 UNK         0.4895 
     56 O         -79.1009   24.4783  -74.6343 O.2       3 UNK        -0.5091 
     57 CA        -80.3820   23.1719  -76.1958 C.3       3 UNK         0.0250 
     58 CB        -81.7202   22.4807  -75.8702 C.3       3 UNK        -0.1996 
     59 N         -80.6550   24.4837  -76.7680 N.am      3 UNK        -0.4254 
     60 C         -80.7293   24.8014  -78.0649 C.2       2 UNK         0.5004 
     61 O         -80.5852   23.9872  -78.9773 O.2       2 UNK        -0.5226 
     62 CA        -81.0369   26.2757  -78.4049 C.3       2 UNK         0.0269 
     63 CB        -82.3850   26.3948  -79.1357 C.3       2 UNK        -0.1926 
     64 N         -81.0704   27.1353  -77.2154 N.am      2 UNK        -0.4687 
     65 C         -79.9869   27.6158  -76.5918 C.2       1 UNK         0.5165 
     66 O         -78.8470   27.4967  -77.0380 O.2       1 UNK        -0.5079 
     67 H67       -81.4809   25.2748  -72.8401 H         1 UNK         0.0900 
     68 H68       -83.0057   25.0306  -73.6921 H         1 UNK         0.0900 
     69 H69       -82.9214   26.1716  -72.3479 H         1 UNK         0.0900 
     70 H70       -80.0603   26.6990  -73.8075 H         1 UNK         0.2959 
     71 H71       -80.9738   29.0459  -75.3614 H         1 UNK         0.1079 
     72 H72       -78.2946   28.1555  -74.1894 H         1 UNK         0.0837 
     73 H73       -78.3728   29.4049  -75.4081 H         1 UNK         0.0837 
     74 H74       -79.9992   28.4071  -71.9508 H         1 UNK         0.0685 
     75 H75       -79.8900   29.9147  -71.0976 H         1 UNK         0.0685 
     76 H76       -78.2102   26.8315  -71.7228 H         1 UNK         0.1434 
     77 H77       -74.7475   27.9055  -69.4333 H         1 UNK         0.1329 
     78 H78       -77.5544   30.9211  -70.6282 H         1 UNK         0.1335 
     79 H79       -75.8189   31.5047  -69.0934 H         1 UNK         0.0680 
     80 H80       -75.1764   30.1946  -68.1467 H         1 UNK         0.0680 
     81 H81       -73.5511   33.1360  -70.6962 H         1 UNK         0.1032 
     82 H82       -74.9658   32.2826  -71.2278 H         1 UNK         0.1032 
     83 H83       -73.5673   32.6040  -73.1444 H         1 UNK         0.0461 
     84 H84       -69.8752   31.1313  -72.6766 H         1 UNK         0.3453 
     85 H85       -71.2588   30.1104  -72.9837 H         1 UNK         0.3453 
     86 H86       -74.0709   29.9372  -72.2397 H         1 UNK         0.2984 
     87 H87       -74.1293   28.1926  -73.4756 H         1 UNK         0.0554 
     88 H88       -76.0610   27.7926  -74.9837 H         1 UNK         0.0847 
     89 H89       -75.7233   29.2912  -75.8464 H         1 UNK         0.0847 
     90 H90       -76.2159   29.3393  -74.1577 H         1 UNK         0.0847 
     91 H91       -73.8621   27.6271  -76.2287 H         1 UNK         0.3141 
     92 H92       -70.6180   27.2417  -76.7157 H         1 UNK         0.0743 
     93 H93       -70.0457   25.7110  -74.8766 H         1 UNK         0.0784 
     94 H94       -71.5617   24.8431  -75.0591 H         1 UNK         0.0784 
     95 H95       -70.3417   24.7751  -76.3307 H         1 UNK         0.0784 
     96 H96       -72.9595   25.4409  -77.0679 H         1 UNK         0.3213 
     97 H97       -74.0637   27.1017  -79.9404 H         1 UNK         0.0855 
     98 H98       -72.1267   26.0022  -81.0796 H         1 UNK         0.0814 
     99 H99       -73.6034   25.0835  -81.3115 H         1 UNK         0.0814 
    100 H100      -72.3941   24.5359  -80.1482 H         1 UNK         0.0814 
    101 H101      -74.6409   24.4621  -79.0735 H         1 UNK         0.3105 
    102 H102      -77.4829   25.3062  -77.4448 H         1 UNK         0.0547 
    103 H103      -76.7072   23.6083  -79.1029 H         1 UNK         0.0837 
    104 H104      -75.5540   22.9703  -77.9270 H         1 UNK         0.0837 
    105 H105      -77.2812   22.8609  -77.6286 H         1 UNK         0.0837 
    106 H106      -77.1215   24.7848  -75.3186 H         1 UNK         0.3020 
    107 H107      -74.4166   23.4524  -73.4916 H         1 UNK         0.1245 
    108 H108      -75.5757   26.2733  -73.1623 H         1 UNK         0.0781 
    109 H109      -73.8868   25.9172  -73.4526 H         1 UNK         0.0781 
    110 H110      -75.9847   25.4972  -69.4109 H         1 UNK         0.0836 
    111 H111      -76.8312   25.1021  -70.8758 H         1 UNK         0.0836 
    112 H112      -77.1484   24.3583  -72.9599 H         1 UNK         0.3022 
    113 H113      -78.3642   21.0523  -72.8075 H         1 UNK         0.0747 
    114 H114      -79.8605   22.5650  -71.5885 H         1 UNK         0.0793 
    115 H115      -78.2174   22.7950  -71.0218 H         1 UNK         0.0793 
    116 H116      -78.9540   23.9827  -72.0879 H         1 UNK         0.0793 
    117 H117      -79.5780   21.3601  -74.6211 H         1 UNK         0.3047 
    118 H118      -79.8207   22.5681  -76.9119 H         1 UNK         0.0822 
    119 H119      -82.3564   22.4189  -76.7535 H         1 UNK         0.0807 
    120 H120      -82.2744   23.0180  -75.0998 H         1 UNK         0.0807 
    121 H121      -81.5713   21.4603  -75.5165 H         1 UNK         0.0807 
    122 H122      -80.6821   25.2357  -76.0937 H         1 UNK         0.2946 
    123 H123      -80.2476   26.6234  -79.0757 H         1 UNK         0.1144 
    124 H124      -82.5906   27.4260  -79.4233 H         1 UNK         0.0793 
    125 H125      -83.2122   26.0471  -78.5154 H         1 UNK         0.0793 
    126 H126      -82.3897   25.7990  -80.0496 H         1 UNK         0.0793 
    127 H127      -81.9681   27.2527  -76.7576 H         1 UNK         0.2896 
@<TRIPOS>BOND
     1    1    2 1    
     2    1   67 1    
     3    1   68 1    
     4    1   69 1    
     5    2    3 2    
     6    2    4 am   BACKBONE|DICT|INTERRES
     7    4    5 1    
     8    4   70 1    
     9    5    6 1    
    10    5   65 1    
    11    5   71 1    
    12    6    7 1    
    13    6   72 1    
    14    6   73 1    
    15    7    8 1    
    16    8    9 1    
    17    8   74 1    
    18    8   75 1    
    19    9   10 ar   
    20    9   14 ar   
    21   10   11 ar   
    22   10   76 1    
    23   11   12 ar   
    24   11   48 1    
    25   12   13 ar   
    26   12   77 1    
    27   13   14 ar   
    28   13   15 1    
    29   14   78 1    
    30   15   16 1    
    31   15   79 1    
    32   15   80 1    
    33   16   17 1    
    34   17   18 1    
    35   17   81 1    
    36   17   82 1    
    37   18   19 1    
    38   18   22 1    
    39   18   83 1    
    40   19   20 am   BACKBONE|DICT|INTERRES
    41   19   21 2    
    42   20   84 1    
    43   20   85 1    
    44   22   23 am   BACKBONE|DICT|INTERRES
    45   22   86 1    
    46   23   24 2    
    47   23   25 1    
    48   25   26 1    
    49   25   27 1    
    50   25   87 1    
    51   26   88 1    
    52   26   89 1    
    53   26   90 1    
    54   27   28 am   BACKBONE|DICT|INTERRES
    55   27   91 1    
    56   28   29 2    
    57   28   30 1    
    58   30   31 1    
    59   30   32 1    
    60   30   92 1    
    61   31   93 1    
    62   31   94 1    
    63   31   95 1    
    64   32   33 am   BACKBONE|DICT|INTERRES
    65   32   96 1    
    66   33   34 2    
    67   33   35 1    
    68   35   36 1    
    69   35   37 1    
    70   35   97 1    
    71   36   98 1    
    72   36   99 1    
    73   36  100 1    
    74   37   38 am   BACKBONE|DICT|INTERRES
    75   37  101 1    
    76   38   39 2    
    77   38   40 1    
    78   40   41 1    
    79   40   42 1    
    80   40  102 1    
    81   41  103 1    
    82   41  104 1    
    83   41  105 1    
    84   42   43 am   BACKBONE|DICT|INTERRES
    85   42  106 1    
    86   43   44 2    
    87   43   45 1    
    88   45   46 1    
    89   45   49 1    
    90   45  107 1    
    91   46   47 1    
    92   46  108 1    
    93   46  109 1    
    94   47   48 1    
    95   48  110 1    
    96   48  111 1    
    97   49   50 am   BACKBONE|DICT|INTERRES
    98   49  112 1    
    99   50   51 2    
   100   50   52 1    
   101   52   53 1    
   102   52   54 1    
   103   52  113 1    
   104   53  114 1    
   105   53  115 1    
   106   53  116 1    
   107   54   55 am   BACKBONE|DICT|INTERRES
   108   54  117 1    
   109   55   56 2    
   110   55   57 1    
   111   57   58 1    
   112   57   59 1    
   113   57  118 1    
   114   58  119 1    
   115   58  120 1    
   116   58  121 1    
   117   59   60 am   BACKBONE|DICT|INTERRES
   118   59  122 1    
   119   60   61 2    
   120   60   62 1    
   121   62   63 1    
   122   62   64 1    
   123   62  123 1    
   124   63  124 1    
   125   63  125 1    
   126   63  126 1    
   127   64   65 am   BACKBONE|DICT|INTERRES
   128   64  127 1    
   129   65   66 2    
@<TRIPOS>SUBSTRUCTURE
     1 UNK         1 GROUP             0       ****    0 ROOT    
