@<TRIPOS>MOLECULE
3R135
127   129    1
SMALL
USER_CHARGES


@<TRIPOS>ATOM
      1 CA        -83.0321   27.6361  -71.7059 C.3       0 UNK        -0.1998 
      2 C         -82.1844   27.4897  -72.9595 C.2       0 UNK         0.4909 
      3 O         -81.4910   26.4855  -73.1116 O.2       0 UNK        -0.5240 
      4 N         -82.2499   28.4754  -73.8672 N.am      1 UNK        -0.4739 
      5 CA        -81.4609   28.5835  -75.1093 C.3       1 UNK         0.0864 
      6 C6        -79.9466   28.8086  -74.8432 C.3       11 UNK        -0.0881 
      7 S7        -79.6018   30.3803  -73.9832 S.3       11 UNK        -0.2682 
      8 C8        -79.2698   29.8368  -72.2744 C.3       11 UNK         0.0289 
      9 C9        -78.0654   28.9096  -72.1504 C.ar      11 UNK        -0.0687 
     10 C10       -78.2001   27.6728  -71.5095 C.ar      11 UNK        -0.0823 
     11 C11       -77.0941   26.8337  -71.3403 C.ar      11 UNK        -0.0830 
     12 C12       -75.8513   27.2314  -71.8369 C.ar      11 UNK        -0.1021 
     13 C13       -75.7086   28.4501  -72.5039 C.ar      11 UNK        -0.0753 
     14 C14       -76.8138   29.2938  -72.6445 C.ar      11 UNK        -0.0933 
     15 C15       -74.3631   28.8256  -73.0984 C.3       11 UNK         0.0166 
     16 S16       -73.2232   29.4670  -71.8330 S.3       11 UNK        -0.2615 
     17 C17       -73.3679   31.2713  -72.0960 C.3       11 UNK        -0.0865 
     18 CA        -72.1676   31.8826  -72.8779 C.3       10 UNK         0.0862 
     19 C         -70.8707   31.9760  -72.0300 C.2       10 UNK         0.5551 
     20 N         -70.8706   32.7995  -70.9902 N.am      10 UNK        -0.7319 
     21 O         -69.8670   31.3179  -72.2985 O.2       10 UNK        -0.5018 
     22 N         -71.9293   31.2010  -74.1552 N.am      10 UNK        -0.4509 
     23 C         -72.6637   31.3323  -75.2610 C.2       10 UNK         0.4899 
     24 O         -73.6106   32.1132  -75.3590 O.2       10 UNK        -0.4839 
     25 CA        -72.3221   30.4247  -76.4558 C.3       9 UNK         0.0222 
     26 CB        -71.2012   31.0336  -77.3208 C.3       9 UNK        -0.1966 
     27 N         -72.0508   29.0199  -76.1093 N.am      9 UNK        -0.4218 
     28 C         -70.9946   28.4934  -75.4660 C.2       9 UNK         0.5020 
     29 O         -70.0727   29.1710  -75.0110 O.2       9 UNK        -0.5274 
     30 CA        -70.9364   26.9603  -75.2863 C.3       8 UNK         0.0270 
     31 CB        -71.0043   26.5701  -73.7998 C.3       8 UNK        -0.1976 
     32 N         -71.9727   26.2342  -76.0273 N.am      8 UNK        -0.4313 
     33 C         -71.9562   26.0394  -77.3558 C.2       8 UNK         0.5041 
     34 O         -71.0115   26.3645  -78.0761 O.2       8 UNK        -0.5577 
     35 CA        -73.2035   25.4096  -78.0096 C.3       7 UNK         0.0284 
     36 CB        -72.9597   23.9209  -78.3039 C.3       7 UNK        -0.1958 
     37 N         -74.4348   25.5428  -77.2261 N.am      7 UNK        -0.4454 
     38 C         -74.9869   26.6944  -76.8143 C.2       7 UNK         0.5089 
     39 O         -74.5460   27.8058  -77.1072 O.2       7 UNK        -0.5125 
     40 CA        -76.1968   26.5919  -75.8677 C.3       6 UNK         0.0408 
     41 CB        -77.4932   26.7598  -76.6699 C.3       6 UNK        -0.1791 
     42 N         -76.2670   25.3427  -75.0986 N.am      6 UNK        -0.4762 
     43 C         -75.3003   24.8417  -74.3090 C.2       6 UNK         0.5007 
     44 O         -74.2122   25.3932  -74.1343 O.2       6 UNK        -0.5032 
     45 CA        -75.5432   23.4621  -73.6593 C.3       5 UNK         0.0783 
     46 C46       -75.8248   23.5723  -72.1391 C.3       11 UNK        -0.0857 
     47 S47       -77.5219   24.1151  -71.7255 S.3       11 UNK        -0.2512 
     48 C48       -77.2376   25.5141  -70.5964 C.3       11 UNK         0.0225 
     49 N         -76.5564   22.6564  -74.3492 N.am      5 UNK        -0.4615 
     50 C         -76.4808   22.2203  -75.6133 C.2       4 UNK         0.5053 
     51 O         -75.4965   22.3911  -76.3336 O.2       4 UNK        -0.5105 
     52 CA        -77.7191   21.5044  -76.1857 C.3       4 UNK         0.0263 
     53 CB        -77.5041   19.9824  -76.1795 C.3       4 UNK        -0.1981 
     54 N         -78.9861   21.8149  -75.5068 N.am      4 UNK        -0.4224 
     55 C         -79.5461   23.0307  -75.4239 C.2       3 UNK         0.4895 
     56 O         -79.0105   24.0592  -75.8405 O.2       3 UNK        -0.5091 
     57 CA        -80.9089   23.1030  -74.7142 C.3       3 UNK         0.0250 
     58 CB        -80.7244   23.2328  -73.1952 C.3       3 UNK        -0.1996 
     59 N         -81.7168   24.2271  -75.1926 N.am      3 UNK        -0.4254 
     60 C         -82.3486   24.2502  -76.3761 C.2       2 UNK         0.5004 
     61 O         -82.3390   23.3059  -77.1679 O.2       2 UNK        -0.5226 
     62 CA        -83.1586   25.5098  -76.7415 C.3       2 UNK         0.0269 
     63 CB        -84.6655   25.2403  -76.5923 C.3       2 UNK        -0.1926 
     64 N         -82.8093   26.6854  -75.9416 N.am      2 UNK        -0.4687 
     65 C         -81.7099   27.4317  -76.1173 C.2       1 UNK         0.5165 
     66 O         -80.9234   27.2499  -77.0475 O.2       1 UNK        -0.5079 
     67 H67       -83.7351   26.8071  -71.6298 H         1 UNK         0.0900 
     68 H68       -83.6003   28.5661  -71.7030 H         1 UNK         0.0900 
     69 H69       -82.3951   27.6248  -70.8220 H         1 UNK         0.0900 
     70 H70       -82.8588   29.2619  -73.6865 H         1 UNK         0.2959 
     71 H71       -81.8342   29.4730  -75.6196 H         1 UNK         0.1079 
     72 H72       -79.5198   27.9694  -74.2920 H         1 UNK         0.0837 
     73 H73       -79.3957   28.8627  -75.7830 H         1 UNK         0.0837 
     74 H74       -80.1676   29.3656  -71.8741 H         1 UNK         0.0685 
     75 H75       -79.0912   30.7196  -71.6593 H         1 UNK         0.0685 
     76 H76       -79.1653   27.3666  -71.1289 H         1 UNK         0.1434 
     77 H77       -74.9903   26.5887  -71.7173 H         1 UNK         0.1329 
     78 H78       -76.7053   30.2442  -73.1490 H         1 UNK         0.1335 
     79 H79       -73.9198   27.9458  -73.5612 H         1 UNK         0.0680 
     80 H80       -74.4910   29.5438  -73.9082 H         1 UNK         0.0680 
     81 H81       -74.2975   31.4883  -72.6236 H         1 UNK         0.1032 
     82 H82       -73.4813   31.7512  -71.1227 H         1 UNK         0.1032 
     83 H83       -72.4214   32.9169  -73.1189 H         1 UNK         0.0461 
     84 H84       -71.6800   33.3550  -70.7610 H         1 UNK         0.3453 
     85 H85       -70.0381   32.8736  -70.4265 H         1 UNK         0.3453 
     86 H86       -71.1353   30.5644  -74.1669 H         1 UNK         0.2984 
     87 H87       -73.2186   30.3883  -77.0769 H         1 UNK         0.0554 
     88 H88       -71.0051   30.4234  -78.2024 H         1 UNK         0.0847 
     89 H89       -70.2664   31.1369  -76.7692 H         1 UNK         0.0847 
     90 H90       -71.4793   32.0287  -77.6704 H         1 UNK         0.0847 
     91 H91       -72.7788   28.3803  -76.4157 H         1 UNK         0.3141 
     92 H92       -69.9633   26.6400  -75.6647 H         1 UNK         0.0743 
     93 H93       -70.2185   27.0658  -73.2280 H         1 UNK         0.0784 
     94 H94       -71.9551   26.8455  -73.3465 H         1 UNK         0.0784 
     95 H95       -70.8717   25.4964  -73.6663 H         1 UNK         0.0784 
     96 H96       -72.7810   25.9259  -75.4936 H         1 UNK         0.3213 
     97 H97       -73.3645   25.9271  -78.9576 H         1 UNK         0.0855 
     98 H98       -72.0648   23.7827  -78.9123 H         1 UNK         0.0814 
     99 H99       -73.7936   23.4818  -78.8521 H         1 UNK         0.0814 
    100 H100      -72.8238   23.3463  -77.3866 H         1 UNK         0.0814 
    101 H101      -74.8670   24.6806  -76.9185 H         1 UNK         0.3105 
    102 H102      -76.1279   27.4108  -75.1506 H         1 UNK         0.0547 
    103 H103      -77.5977   25.9894  -77.4349 H         1 UNK         0.0837 
    104 H104      -78.3677   26.6973  -76.0242 H         1 UNK         0.0837 
    105 H105      -77.5240   27.7276  -77.1719 H         1 UNK         0.0837 
    106 H106      -77.1283   24.8136  -75.1940 H         1 UNK         0.3020 
    107 H107      -74.5975   22.9262  -73.7708 H         1 UNK         0.1245 
    108 H108      -75.0890   24.2172  -71.6561 H         1 UNK         0.0781 
    109 H109      -75.6850   22.5918  -71.6816 H         1 UNK         0.0781 
    110 H110      -76.3596   25.3274  -69.9762 H         1 UNK         0.0836 
    111 H111      -78.0800   25.5725  -69.9055 H         1 UNK         0.0836 
    112 H112      -77.4092   22.4944  -73.8340 H         1 UNK         0.3022 
    113 H113      -77.8202   21.8302  -77.2231 H         1 UNK         0.0747 
    114 H114      -78.3208   19.4627  -76.6811 H         1 UNK         0.0793 
    115 H115      -76.5847   19.7153  -76.7029 H         1 UNK         0.0793 
    116 H116      -77.4267   19.5897  -75.1647 H         1 UNK         0.0793 
    117 H117      -79.4856   21.0282  -75.1166 H         1 UNK         0.3047 
    118 H118      -81.4544   22.1787  -74.9171 H         1 UNK         0.0822 
    119 H119      -80.1432   22.4028  -72.7917 H         1 UNK         0.0807 
    120 H120      -81.6838   23.2392  -72.6778 H         1 UNK         0.0807 
    121 H121      -80.2028   24.1546  -72.9361 H         1 UNK         0.0807 
    122 H122      -81.7226   25.0586  -74.6105 H         1 UNK         0.2946 
    123 H123      -82.9524   25.7294  -77.7918 H         1 UNK         0.1144 
    124 H124      -84.9726   24.3893  -77.2020 H         1 UNK         0.0793 
    125 H125      -85.2564   26.0974  -76.9160 H         1 UNK         0.0793 
    126 H126      -84.9352   25.0152  -75.5596 H         1 UNK         0.0793 
    127 H127      -83.4050   26.9000  -75.1549 H         1 UNK         0.2896 
@<TRIPOS>BOND
     1    1    2 1    
     2    1   67 1    
     3    1   68 1    
     4    1   69 1    
     5    2    3 2    
     6    2    4 am   BACKBONE|DICT|INTERRES
     7    4    5 1    
     8    4   70 1    
     9    5    6 1    
    10    5   65 1    
    11    5   71 1    
    12    6    7 1    
    13    6   72 1    
    14    6   73 1    
    15    7    8 1    
    16    8    9 1    
    17    8   74 1    
    18    8   75 1    
    19    9   10 ar   
    20    9   14 ar   
    21   10   11 ar   
    22   10   76 1    
    23   11   12 ar   
    24   11   48 1    
    25   12   13 ar   
    26   12   77 1    
    27   13   14 ar   
    28   13   15 1    
    29   14   78 1    
    30   15   16 1    
    31   15   79 1    
    32   15   80 1    
    33   16   17 1    
    34   17   18 1    
    35   17   81 1    
    36   17   82 1    
    37   18   19 1    
    38   18   22 1    
    39   18   83 1    
    40   19   20 am   BACKBONE|DICT|INTERRES
    41   19   21 2    
    42   20   84 1    
    43   20   85 1    
    44   22   23 am   BACKBONE|DICT|INTERRES
    45   22   86 1    
    46   23   24 2    
    47   23   25 1    
    48   25   26 1    
    49   25   27 1    
    50   25   87 1    
    51   26   88 1    
    52   26   89 1    
    53   26   90 1    
    54   27   28 am   BACKBONE|DICT|INTERRES
    55   27   91 1    
    56   28   29 2    
    57   28   30 1    
    58   30   31 1    
    59   30   32 1    
    60   30   92 1    
    61   31   93 1    
    62   31   94 1    
    63   31   95 1    
    64   32   33 am   BACKBONE|DICT|INTERRES
    65   32   96 1    
    66   33   34 2    
    67   33   35 1    
    68   35   36 1    
    69   35   37 1    
    70   35   97 1    
    71   36   98 1    
    72   36   99 1    
    73   36  100 1    
    74   37   38 am   BACKBONE|DICT|INTERRES
    75   37  101 1    
    76   38   39 2    
    77   38   40 1    
    78   40   41 1    
    79   40   42 1    
    80   40  102 1    
    81   41  103 1    
    82   41  104 1    
    83   41  105 1    
    84   42   43 am   BACKBONE|DICT|INTERRES
    85   42  106 1    
    86   43   44 2    
    87   43   45 1    
    88   45   46 1    
    89   45   49 1    
    90   45  107 1    
    91   46   47 1    
    92   46  108 1    
    93   46  109 1    
    94   47   48 1    
    95   48  110 1    
    96   48  111 1    
    97   49   50 am   BACKBONE|DICT|INTERRES
    98   49  112 1    
    99   50   51 2    
   100   50   52 1    
   101   52   53 1    
   102   52   54 1    
   103   52  113 1    
   104   53  114 1    
   105   53  115 1    
   106   53  116 1    
   107   54   55 am   BACKBONE|DICT|INTERRES
   108   54  117 1    
   109   55   56 2    
   110   55   57 1    
   111   57   58 1    
   112   57   59 1    
   113   57  118 1    
   114   58  119 1    
   115   58  120 1    
   116   58  121 1    
   117   59   60 am   BACKBONE|DICT|INTERRES
   118   59  122 1    
   119   60   61 2    
   120   60   62 1    
   121   62   63 1    
   122   62   64 1    
   123   62  123 1    
   124   63  124 1    
   125   63  125 1    
   126   63  126 1    
   127   64   65 am   BACKBONE|DICT|INTERRES
   128   64  127 1    
   129   65   66 2    
@<TRIPOS>SUBSTRUCTURE
     1 UNK         1 GROUP             0       ****    0 ROOT    
