@<TRIPOS>MOLECULE
3R135
127   129    1
SMALL
USER_CHARGES


@<TRIPOS>ATOM
      1 CA        -78.2541   22.0015  -71.2948 C.3       0 UNK        -0.1998 
      2 C         -79.2796   23.1031  -71.5119 C.2       0 UNK         0.4909 
      3 O         -80.2821   22.8806  -72.1916 O.2       0 UNK        -0.5240 
      4 N         -79.0318   24.2957  -70.9527 N.am      1 UNK        -0.4739 
      5 CA        -79.8781   25.4888  -71.0802 C.3       1 UNK         0.0864 
      6 C6        -79.3443   26.6537  -70.2085 C.3       11 UNK        -0.0881 
      7 S7        -80.6619   27.6886  -69.4797 S.3       11 UNK        -0.2682 
      8 C8        -81.2181   28.7548  -70.8602 C.3       11 UNK         0.0289 
      9 C9        -80.1256   29.5325  -71.5947 C.ar      11 UNK        -0.0687 
     10 C10       -80.3362   29.8896  -72.9302 C.ar      11 UNK        -0.0823 
     11 C11       -79.3647   30.5956  -73.6470 C.ar      11 UNK        -0.0830 
     12 C12       -78.1593   30.9299  -73.0222 C.ar      11 UNK        -0.1021 
     13 C13       -77.9296   30.5716  -71.6911 C.ar      11 UNK        -0.0753 
     14 C14       -78.9292   29.9092  -70.9742 C.ar      11 UNK        -0.0933 
     15 C15       -76.5975   30.8801  -71.0242 C.3       11 UNK         0.0166 
     16 S16       -75.7075   29.3561  -70.5650 S.3       11 UNK        -0.2615 
     17 C17       -75.2130   28.6883  -72.1923 C.3       11 UNK        -0.0865 
     18 CA        -73.7075   28.9211  -72.4774 C.3       10 UNK         0.0862 
     19 C         -72.7974   27.9663  -71.6605 C.2       10 UNK         0.5551 
     20 N         -72.0806   28.4779  -70.6695 N.am      10 UNK        -0.7319 
     21 O         -72.7615   26.7625  -71.9044 O.2       10 UNK        -0.5018 
     22 N         -73.4130   28.7878  -73.9080 N.am      10 UNK        -0.4509 
     23 C         -72.4454   29.4666  -74.5388 C.2       10 UNK         0.4899 
     24 O         -71.7806   30.3632  -74.0169 O.2       10 UNK        -0.4839 
     25 CA        -72.1873   29.0681  -76.0031 C.3       9 UNK         0.0222 
     26 CB        -70.9331   29.7311  -76.6107 C.3       9 UNK        -0.1966 
     27 N         -72.1559   27.6134  -76.1769 N.am      9 UNK        -0.4218 
     28 C         -71.2949   26.7311  -75.6422 C.2       9 UNK         0.5020 
     29 O         -70.3228   27.0429  -74.9536 O.2       9 UNK        -0.5274 
     30 CA        -71.5662   25.2406  -75.9198 C.3       8 UNK         0.0270 
     31 CB        -71.9678   24.5119  -74.6254 C.3       8 UNK        -0.1976 
     32 N         -72.6287   25.0675  -76.9151 N.am      8 UNK        -0.4313 
     33 C         -72.4234   24.7901  -78.2090 C.2       8 UNK         0.5041 
     34 O         -71.3228   24.5211  -78.6923 O.2       8 UNK        -0.5577 
     35 CA        -73.6548   24.8581  -79.1254 C.3       7 UNK         0.0284 
     36 CB        -74.6168   23.6936  -78.8429 C.3       7 UNK        -0.1958 
     37 N         -74.3745   26.1290  -79.0077 N.am      7 UNK        -0.4454 
     38 C         -73.9147   27.3279  -79.3887 C.2       7 UNK         0.5089 
     39 O         -72.8014   27.5038  -79.8820 O.2       7 UNK        -0.5125 
     40 CA        -74.8353   28.5494  -79.1814 C.3       6 UNK         0.0408 
     41 CB        -75.7852   28.7318  -80.3807 C.3       6 UNK        -0.1791 
     42 N         -75.5686   28.5760  -77.9047 N.am      6 UNK        -0.4762 
     43 C         -76.5179   27.7362  -77.4665 C.2       6 UNK         0.5007 
     44 O         -76.9509   26.7859  -78.1223 O.2       6 UNK        -0.5032 
     45 CA        -77.0354   27.9644  -76.0302 C.3       5 UNK         0.0783 
     46 C46       -78.4495   28.5927  -76.0370 C.3       11 UNK        -0.0857 
     47 S47       -78.3621   30.4012  -76.2574 S.3       11 UNK        -0.2512 
     48 C48       -79.6309   30.9998  -75.0929 C.3       11 UNK         0.0225 
     49 N         -77.0060   26.7221  -75.2567 N.am      5 UNK        -0.4615 
     50 C         -75.9324   25.9444  -75.0654 C.2       4 UNK         0.5053 
     51 O         -74.7982   26.2484  -75.4396 O.2       4 UNK        -0.5105 
     52 CA        -76.1578   24.6012  -74.3544 C.3       4 UNK         0.0263 
     53 CB        -75.8914   24.7353  -72.8471 C.3       4 UNK        -0.1981 
     54 N         -77.5177   24.0977  -74.5729 N.am      4 UNK        -0.4224 
     55 C         -77.8814   23.3173  -75.6023 C.2       3 UNK         0.4895 
     56 O         -77.0854   22.8581  -76.4204 O.2       3 UNK        -0.5091 
     57 CA        -79.3750   22.9727  -75.7566 C.3       3 UNK         0.0250 
     58 CB        -79.6484   21.5334  -75.2900 C.3       3 UNK        -0.1996 
     59 N         -80.2557   23.8953  -75.0348 N.am      3 UNK        -0.4254 
     60 C         -80.6464   25.0887  -75.5100 C.2       2 UNK         0.5004 
     61 O         -80.3703   25.4975  -76.6370 O.2       2 UNK        -0.5226 
     62 CA        -81.4537   26.0033  -74.5660 C.3       2 UNK         0.0269 
     63 CB        -82.9599   25.8661  -74.8372 C.3       2 UNK        -0.1926 
     64 N         -81.1959   25.7700  -73.1407 N.am      2 UNK        -0.4687 
     65 C         -79.9960   25.9024  -72.5605 C.2       1 UNK         0.5165 
     66 O         -78.9872   26.2605  -73.1711 O.2       1 UNK        -0.5079 
     67 H67       -78.7397   21.1104  -70.8983 H         1 UNK         0.0900 
     68 H68       -77.7795   21.7397  -72.2401 H         1 UNK         0.0900 
     69 H69       -77.4750   22.3019  -70.5945 H         1 UNK         0.0900 
     70 H70       -78.1842   24.4190  -70.4178 H         1 UNK         0.2959 
     71 H71       -80.8672   25.2027  -70.7156 H         1 UNK         0.1079 
     72 H72       -78.6092   27.2622  -70.7375 H         1 UNK         0.0837 
     73 H73       -78.7989   26.2515  -69.3532 H         1 UNK         0.0837 
     74 H74       -81.7705   28.1341  -71.5665 H         1 UNK         0.0685 
     75 H75       -81.9374   29.4727  -70.4645 H         1 UNK         0.0685 
     76 H76       -81.2654   29.6187  -73.4129 H         1 UNK         0.1434 
     77 H77       -77.3975   31.4587  -73.5787 H         1 UNK         0.1329 
     78 H78       -78.7484   29.6527  -69.9398 H         1 UNK         0.1335 
     79 H79       -76.7783   31.4690  -70.1240 H         1 UNK         0.0680 
     80 H80       -75.9624   31.4885  -71.6702 H         1 UNK         0.0680 
     81 H81       -75.8193   29.1622  -72.9649 H         1 UNK         0.1032 
     82 H82       -75.4648   27.6278  -72.2332 H         1 UNK         0.1032 
     83 H83       -73.4831   29.9495  -72.1849 H         1 UNK         0.0461 
     84 H84       -71.4936   27.8675  -70.1231 H         1 UNK         0.3453 
     85 H85       -72.1179   29.4625  -70.4566 H         1 UNK         0.3453 
     86 H86       -73.8405   28.0012  -74.3805 H         1 UNK         0.2984 
     87 H87       -73.0476   29.4247  -76.5700 H         1 UNK         0.0554 
     88 H88       -71.0186   30.8182  -76.5917 H         1 UNK         0.0847 
     89 H89       -70.7938   29.4358  -77.6508 H         1 UNK         0.0847 
     90 H90       -70.0275   29.4687  -76.0630 H         1 UNK         0.0847 
     91 H91       -72.9290   27.2211  -76.6937 H         1 UNK         0.3141 
     92 H92       -70.6338   24.8012  -76.2801 H         1 UNK         0.0743 
     93 H93       -71.1701   24.5691  -73.8836 H         1 UNK         0.0784 
     94 H94       -72.8575   24.9486  -74.1718 H         1 UNK         0.0784 
     95 H95       -72.1664   23.4558  -74.8081 H         1 UNK         0.0784 
     96 H96       -73.5687   25.2826  -76.5934 H         1 UNK         0.3213 
     97 H97       -73.3066   24.7672  -80.1566 H         1 UNK         0.0855 
     98 H98       -75.0323   23.7482  -77.8366 H         1 UNK         0.0814 
     99 H99       -74.1071   22.7334  -78.9342 H         1 UNK         0.0814 
    100 H100      -75.4495   23.6864  -79.5463 H         1 UNK         0.0814 
    101 H101      -75.3240   26.0998  -78.6411 H         1 UNK         0.3105 
    102 H102      -74.1820   29.4232  -79.1540 H         1 UNK         0.0547 
    103 H103      -75.2226   28.8221  -81.3109 H         1 UNK         0.0837 
    104 H104      -76.3858   29.6353  -80.2770 H         1 UNK         0.0837 
    105 H105      -76.4661   27.8884  -80.4977 H         1 UNK         0.0837 
    106 H106      -75.3013   29.3323  -77.2903 H         1 UNK         0.3020 
    107 H107      -76.3523   28.6423  -75.5143 H         1 UNK         0.1245 
    108 H108      -78.9502   28.3802  -75.0921 H         1 UNK         0.0781 
    109 H109      -79.0883   28.1574  -76.8086 H         1 UNK         0.0781 
    110 H110      -80.6052   30.6387  -75.4263 H         1 UNK         0.0836 
    111 H111      -79.6734   32.0882  -75.1502 H         1 UNK         0.0836 
    112 H112      -77.8817   26.4379  -74.8341 H         1 UNK         0.3022 
    113 H113      -75.4343   23.8906  -74.7598 H         1 UNK         0.0747 
    114 H114      -74.8830   25.1072  -72.6614 H         1 UNK         0.0793 
    115 H115      -76.5859   25.4259  -72.3687 H         1 UNK         0.0793 
    116 H116      -75.9745   23.7721  -72.3449 H         1 UNK         0.0793 
    117 H117      -78.2381   24.4848  -73.9763 H         1 UNK         0.3047 
    118 H118      -79.6093   23.0259  -76.8223 H         1 UNK         0.0822 
    119 H119      -80.6959   21.2641  -75.4257 H         1 UNK         0.0807 
    120 H120      -79.3990   21.3908  -74.2388 H         1 UNK         0.0807 
    121 H121      -79.0546   20.8197  -75.8628 H         1 UNK         0.0807 
    122 H122      -80.5159   23.6296  -74.0894 H         1 UNK         0.2946 
    123 H123      -81.1578   27.0309  -74.7895 H         1 UNK         0.1144 
    124 H124      -83.3219   24.8635  -74.6062 H         1 UNK         0.0793 
    125 H125      -83.1868   26.0608  -75.8866 H         1 UNK         0.0793 
    126 H126      -83.5368   26.5777  -74.2462 H         1 UNK         0.0793 
    127 H127      -81.9701   25.4227  -72.5923 H         1 UNK         0.2896 
@<TRIPOS>BOND
     1    1    2 1    
     2    1   67 1    
     3    1   68 1    
     4    1   69 1    
     5    2    3 2    
     6    2    4 am   BACKBONE|DICT|INTERRES
     7    4    5 1    
     8    4   70 1    
     9    5    6 1    
    10    5   65 1    
    11    5   71 1    
    12    6    7 1    
    13    6   72 1    
    14    6   73 1    
    15    7    8 1    
    16    8    9 1    
    17    8   74 1    
    18    8   75 1    
    19    9   10 ar   
    20    9   14 ar   
    21   10   11 ar   
    22   10   76 1    
    23   11   12 ar   
    24   11   48 1    
    25   12   13 ar   
    26   12   77 1    
    27   13   14 ar   
    28   13   15 1    
    29   14   78 1    
    30   15   16 1    
    31   15   79 1    
    32   15   80 1    
    33   16   17 1    
    34   17   18 1    
    35   17   81 1    
    36   17   82 1    
    37   18   19 1    
    38   18   22 1    
    39   18   83 1    
    40   19   20 am   BACKBONE|DICT|INTERRES
    41   19   21 2    
    42   20   84 1    
    43   20   85 1    
    44   22   23 am   BACKBONE|DICT|INTERRES
    45   22   86 1    
    46   23   24 2    
    47   23   25 1    
    48   25   26 1    
    49   25   27 1    
    50   25   87 1    
    51   26   88 1    
    52   26   89 1    
    53   26   90 1    
    54   27   28 am   BACKBONE|DICT|INTERRES
    55   27   91 1    
    56   28   29 2    
    57   28   30 1    
    58   30   31 1    
    59   30   32 1    
    60   30   92 1    
    61   31   93 1    
    62   31   94 1    
    63   31   95 1    
    64   32   33 am   BACKBONE|DICT|INTERRES
    65   32   96 1    
    66   33   34 2    
    67   33   35 1    
    68   35   36 1    
    69   35   37 1    
    70   35   97 1    
    71   36   98 1    
    72   36   99 1    
    73   36  100 1    
    74   37   38 am   BACKBONE|DICT|INTERRES
    75   37  101 1    
    76   38   39 2    
    77   38   40 1    
    78   40   41 1    
    79   40   42 1    
    80   40  102 1    
    81   41  103 1    
    82   41  104 1    
    83   41  105 1    
    84   42   43 am   BACKBONE|DICT|INTERRES
    85   42  106 1    
    86   43   44 2    
    87   43   45 1    
    88   45   46 1    
    89   45   49 1    
    90   45  107 1    
    91   46   47 1    
    92   46  108 1    
    93   46  109 1    
    94   47   48 1    
    95   48  110 1    
    96   48  111 1    
    97   49   50 am   BACKBONE|DICT|INTERRES
    98   49  112 1    
    99   50   51 2    
   100   50   52 1    
   101   52   53 1    
   102   52   54 1    
   103   52  113 1    
   104   53  114 1    
   105   53  115 1    
   106   53  116 1    
   107   54   55 am   BACKBONE|DICT|INTERRES
   108   54  117 1    
   109   55   56 2    
   110   55   57 1    
   111   57   58 1    
   112   57   59 1    
   113   57  118 1    
   114   58  119 1    
   115   58  120 1    
   116   58  121 1    
   117   59   60 am   BACKBONE|DICT|INTERRES
   118   59  122 1    
   119   60   61 2    
   120   60   62 1    
   121   62   63 1    
   122   62   64 1    
   123   62  123 1    
   124   63  124 1    
   125   63  125 1    
   126   63  126 1    
   127   64   65 am   BACKBONE|DICT|INTERRES
   128   64  127 1    
   129   65   66 2    
@<TRIPOS>SUBSTRUCTURE
     1 UNK         1 GROUP             0       ****    0 ROOT    
