@<TRIPOS>MOLECULE
3R135
127   129    1
SMALL
USER_CHARGES


@<TRIPOS>ATOM
      1 CA        -81.3053   21.5834  -70.3504 C.3       0 UNK        -0.1998 
      2 C         -81.6796   22.9038  -71.0070 C.2       0 UNK         0.4909 
      3 O         -82.8661   23.2067  -71.1413 O.2       0 UNK        -0.5240 
      4 N         -80.6765   23.6953  -71.4061 N.am      1 UNK        -0.4739 
      5 CA        -80.8436   24.9748  -72.1052 C.3       1 UNK         0.0864 
      6 C6        -79.5291   25.7961  -72.1256 C.3       11 UNK        -0.0881 
      7 S7        -78.8966   26.1468  -70.4509 S.3       11 UNK        -0.2682 
      8 C8        -79.4128   27.8742  -70.2095 C.3       11 UNK         0.0289 
      9 C9        -78.5256   28.8450  -70.9752 C.ar      11 UNK        -0.0687 
     10 C10       -78.9539   29.3916  -72.1885 C.ar      11 UNK        -0.0823 
     11 C11       -78.1499   30.3040  -72.8768 C.ar      11 UNK        -0.0830 
     12 C12       -76.9185   30.6834  -72.3351 C.ar      11 UNK        -0.1021 
     13 C13       -76.4749   30.1394  -71.1261 C.ar      11 UNK        -0.0753 
     14 C14       -77.2829   29.2173  -70.4532 C.ar      11 UNK        -0.0933 
     15 C15       -75.1405   30.5654  -70.5293 C.3       11 UNK         0.0166 
     16 S16       -73.7294   29.9886  -71.5251 S.3       11 UNK        -0.2615 
     17 C17       -73.2135   31.5447  -72.3364 C.3       11 UNK        -0.0865 
     18 CA        -71.9340   31.4057  -73.2014 C.3       10 UNK         0.0862 
     19 C         -70.6577   31.1735  -72.3359 C.2       10 UNK         0.5551 
     20 N         -69.9597   30.0490  -72.4529 N.am      10 UNK        -0.7319 
     21 O         -70.2881   32.0431  -71.5504 O.2       10 UNK        -0.5018 
     22 N         -72.1343   30.4414  -74.2905 N.am      10 UNK        -0.4509 
     23 C         -71.3777   30.3493  -75.3909 C.2       10 UNK         0.4899 
     24 O         -70.4990   31.1615  -75.6848 O.2       10 UNK        -0.4839 
     25 CA        -71.6476   29.1412  -76.3106 C.3       9 UNK         0.0222 
     26 CB        -70.4122   28.7389  -77.1425 C.3       9 UNK        -0.1966 
     27 N         -72.1926   27.9736  -75.6054 N.am      9 UNK        -0.4218 
     28 C         -71.6342   27.2914  -74.5925 C.2       9 UNK         0.5020 
     29 O         -70.5629   27.5929  -74.0637 O.2       9 UNK        -0.5274 
     30 CA        -72.4135   26.0727  -74.0706 C.3       8 UNK         0.0270 
     31 CB        -73.4614   26.5070  -73.0327 C.3       8 UNK        -0.1976 
     32 N         -73.0698   25.3193  -75.1417 N.am      8 UNK        -0.4313 
     33 C         -72.4270   24.6155  -76.0854 C.2       8 UNK         0.5041 
     34 O         -71.2056   24.4597  -76.1153 O.2       8 UNK        -0.5577 
     35 CA        -73.2917   23.9941  -77.1944 C.3       7 UNK         0.0284 
     36 CB        -73.9567   22.6942  -76.7120 C.3       7 UNK        -0.1958 
     37 N         -74.3078   24.9300  -77.6818 N.am      7 UNK        -0.4454 
     38 C         -74.0443   25.9969  -78.4504 C.2       7 UNK         0.5089 
     39 O         -72.9283   26.2637  -78.8955 O.2       7 UNK        -0.5125 
     40 CA        -75.2210   26.9360  -78.7690 C.3       6 UNK         0.0408 
     41 CB        -75.9000   26.5234  -80.0840 C.3       6 UNK        -0.1791 
     42 N         -76.2202   26.9899  -77.6987 N.am      6 UNK        -0.4762 
     43 C         -76.0145   27.5566  -76.4988 C.2       6 UNK         0.5007 
     44 O         -74.9528   28.0856  -76.1708 O.2       6 UNK        -0.5032 
     45 CA        -77.1649   27.4495  -75.4714 C.3       5 UNK         0.0783 
     46 C46       -78.2595   28.5195  -75.7222 C.3       11 UNK        -0.0857 
     47 S47       -77.6696   30.2463  -75.6062 S.3       11 UNK        -0.2512 
     48 C48       -78.6169   30.8988  -74.1960 C.3       11 UNK         0.0225 
     49 N         -77.7349   26.0939  -75.4642 N.am      5 UNK        -0.4615 
     50 C         -77.0331   24.9755  -75.2115 C.2       4 UNK         0.5053 
     51 O         -75.8709   24.9909  -74.8092 O.2       4 UNK        -0.5105 
     52 CA        -77.6771   23.6103  -75.5233 C.3       4 UNK         0.0263 
     53 CB        -77.8653   22.7612  -74.2560 C.3       4 UNK        -0.1981 
     54 N         -78.9338   23.7023  -76.2712 N.am      4 UNK        -0.4224 
     55 C         -79.0056   24.0487  -77.5670 C.2       3 UNK         0.4895 
     56 O         -78.0141   24.2900  -78.2567 O.2       3 UNK        -0.5091 
     57 CA        -80.4042   24.2032  -78.1951 C.3       3 UNK         0.0250 
     58 CB        -80.8023   22.9169  -78.9357 C.3       3 UNK        -0.1996 
     59 N         -81.4593   24.5587  -77.2404 N.am      3 UNK        -0.4254 
     60 C         -81.4702   25.6595  -76.4754 C.2       2 UNK         0.5004 
     61 O         -80.5862   26.5160  -76.5051 O.2       2 UNK        -0.5226 
     62 CA        -82.6100   25.8070  -75.4491 C.3       2 UNK         0.0269 
     63 CB        -83.7675   24.7979  -75.6325 C.3       2 UNK        -0.1926 
     64 N         -82.0890   25.7494  -74.0757 N.am      2 UNK        -0.4687 
     65 C         -81.3589   24.7566  -73.5432 C.2       1 UNK         0.5165 
     66 O         -81.0519   23.7289  -74.1554 O.2       1 UNK        -0.5079 
     67 H67       -80.2253   21.4519  -70.2859 H         1 UNK         0.0900 
     68 H68       -81.7143   20.7513  -70.9229 H         1 UNK         0.0900 
     69 H69       -81.7134   21.5369  -69.3411 H         1 UNK         0.0900 
     70 H70       -79.7220   23.3987  -71.2649 H         1 UNK         0.2959 
     71 H71       -81.5999   25.5482  -71.5641 H         1 UNK         0.1079 
     72 H72       -79.6680   26.7323  -72.6664 H         1 UNK         0.0837 
     73 H73       -78.7449   25.2650  -72.6642 H         1 UNK         0.0837 
     74 H74       -80.4587   27.9890  -70.4986 H         1 UNK         0.0685 
     75 H75       -79.3664   28.1068  -69.1446 H         1 UNK         0.0685 
     76 H76       -79.9166   29.1127  -72.5941 H         1 UNK         0.1434 
     77 H77       -76.3031   31.3985  -72.8620 H         1 UNK         0.1329 
     78 H78       -76.9519   28.7938  -69.5147 H         1 UNK         0.1335 
     79 H79       -75.1192   31.6510  -70.4257 H         1 UNK         0.0680 
     80 H80       -75.0299   30.1655  -69.5202 H         1 UNK         0.0680 
     81 H81       -73.0705   32.3136  -71.5745 H         1 UNK         0.1032 
     82 H82       -74.0329   31.9002  -72.9617 H         1 UNK         0.1032 
     83 H83       -71.7787   32.3760  -73.6770 H         1 UNK         0.0461 
     84 H84       -69.1354   29.9219  -71.8883 H         1 UNK         0.3453 
     85 H85       -70.2519   29.3135  -73.0879 H         1 UNK         0.3453 
     86 H86       -72.8256   29.7258  -74.1200 H         1 UNK         0.2984 
     87 H87       -72.4253   29.4591  -77.0063 H         1 UNK         0.0554 
     88 H88       -70.6342   27.8940  -77.7950 H         1 UNK         0.0847 
     89 H89       -69.5711   28.4600  -76.5070 H         1 UNK         0.0847 
     90 H90       -70.0817   29.5601  -77.7795 H         1 UNK         0.0847 
     91 H91       -73.1342   27.7120  -75.8905 H         1 UNK         0.3141 
     92 H92       -71.7007   25.4070  -73.5794 H         1 UNK         0.0743 
     93 H93       -74.2089   27.1743  -73.4641 H         1 UNK         0.0784 
     94 H94       -73.9856   25.6476  -72.6142 H         1 UNK         0.0784 
     95 H95       -72.9912   27.0354  -72.2023 H         1 UNK         0.0784 
     96 H96       -74.0885   25.3260  -75.1446 H         1 UNK         0.3213 
     97 H97       -72.6342   23.7439  -78.0303 H         1 UNK         0.0855 
     98 H98       -74.5731   22.8526  -75.8273 H         1 UNK         0.0814 
     99 H99       -73.2020   21.9525  -76.4471 H         1 UNK         0.0814 
    100 H100      -74.5837   22.2542  -77.4878 H         1 UNK         0.0814 
    101 H101      -75.2566   24.7936  -77.3658 H         1 UNK         0.3105 
    102 H102      -74.8142   27.9412  -78.8992 H         1 UNK         0.0547 
    103 H103      -75.1833   26.5170  -80.9064 H         1 UNK         0.0837 
    104 H104      -76.3312   25.5236  -80.0216 H         1 UNK         0.0837 
    105 H105      -76.6963   27.2165  -80.3555 H         1 UNK         0.0837 
    106 H106      -77.1012   26.5250  -77.8757 H         1 UNK         0.3020 
    107 H107      -76.7352   27.6272  -74.4824 H         1 UNK         0.1245 
    108 H108      -79.0791   28.3756  -75.0170 H         1 UNK         0.0781 
    109 H109      -78.6987   28.3879  -76.7126 H         1 UNK         0.0781 
    110 H110      -79.6812   30.7193  -74.3569 H         1 UNK         0.0836 
    111 H111      -78.4944   31.9823  -74.1622 H         1 UNK         0.0836 
    112 H112      -78.6876   26.0138  -75.8039 H         1 UNK         0.3022 
    113 H113      -76.9653   23.0766  -76.1558 H         1 UNK         0.0747 
    114 H114      -78.2102   21.7572  -74.5031 H         1 UNK         0.0793 
    115 H115      -76.9242   22.6539  -73.7145 H         1 UNK         0.0793 
    116 H116      -78.5856   23.1970  -73.5684 H         1 UNK         0.0793 
    117 H117      -79.7905   23.5606  -75.7434 H         1 UNK         0.3047 
    118 H118      -80.3393   25.0127  -78.9251 H         1 UNK         0.0822 
    119 H119      -81.7436   23.0413  -79.4715 H         1 UNK         0.0807 
    120 H120      -80.9123   22.0745  -78.2515 H         1 UNK         0.0807 
    121 H121      -80.0468   22.6413  -79.6731 H         1 UNK         0.0807 
    122 H122      -82.2062   23.8898  -77.1202 H         1 UNK         0.2946 
    123 H123      -83.0167   26.8093  -75.5952 H         1 UNK         0.1144 
    124 H124      -84.5768   25.0063  -74.9325 H         1 UNK         0.0793 
    125 H125      -83.4536   23.7667  -75.4668 H         1 UNK         0.0793 
    126 H126      -84.1929   24.8618  -76.6350 H         1 UNK         0.0793 
    127 H127      -82.2660   26.5710  -73.5145 H         1 UNK         0.2896 
@<TRIPOS>BOND
     1    1    2 1    
     2    1   67 1    
     3    1   68 1    
     4    1   69 1    
     5    2    3 2    
     6    2    4 am   BACKBONE|DICT|INTERRES
     7    4    5 1    
     8    4   70 1    
     9    5    6 1    
    10    5   65 1    
    11    5   71 1    
    12    6    7 1    
    13    6   72 1    
    14    6   73 1    
    15    7    8 1    
    16    8    9 1    
    17    8   74 1    
    18    8   75 1    
    19    9   10 ar   
    20    9   14 ar   
    21   10   11 ar   
    22   10   76 1    
    23   11   12 ar   
    24   11   48 1    
    25   12   13 ar   
    26   12   77 1    
    27   13   14 ar   
    28   13   15 1    
    29   14   78 1    
    30   15   16 1    
    31   15   79 1    
    32   15   80 1    
    33   16   17 1    
    34   17   18 1    
    35   17   81 1    
    36   17   82 1    
    37   18   19 1    
    38   18   22 1    
    39   18   83 1    
    40   19   20 am   BACKBONE|DICT|INTERRES
    41   19   21 2    
    42   20   84 1    
    43   20   85 1    
    44   22   23 am   BACKBONE|DICT|INTERRES
    45   22   86 1    
    46   23   24 2    
    47   23   25 1    
    48   25   26 1    
    49   25   27 1    
    50   25   87 1    
    51   26   88 1    
    52   26   89 1    
    53   26   90 1    
    54   27   28 am   BACKBONE|DICT|INTERRES
    55   27   91 1    
    56   28   29 2    
    57   28   30 1    
    58   30   31 1    
    59   30   32 1    
    60   30   92 1    
    61   31   93 1    
    62   31   94 1    
    63   31   95 1    
    64   32   33 am   BACKBONE|DICT|INTERRES
    65   32   96 1    
    66   33   34 2    
    67   33   35 1    
    68   35   36 1    
    69   35   37 1    
    70   35   97 1    
    71   36   98 1    
    72   36   99 1    
    73   36  100 1    
    74   37   38 am   BACKBONE|DICT|INTERRES
    75   37  101 1    
    76   38   39 2    
    77   38   40 1    
    78   40   41 1    
    79   40   42 1    
    80   40  102 1    
    81   41  103 1    
    82   41  104 1    
    83   41  105 1    
    84   42   43 am   BACKBONE|DICT|INTERRES
    85   42  106 1    
    86   43   44 2    
    87   43   45 1    
    88   45   46 1    
    89   45   49 1    
    90   45  107 1    
    91   46   47 1    
    92   46  108 1    
    93   46  109 1    
    94   47   48 1    
    95   48  110 1    
    96   48  111 1    
    97   49   50 am   BACKBONE|DICT|INTERRES
    98   49  112 1    
    99   50   51 2    
   100   50   52 1    
   101   52   53 1    
   102   52   54 1    
   103   52  113 1    
   104   53  114 1    
   105   53  115 1    
   106   53  116 1    
   107   54   55 am   BACKBONE|DICT|INTERRES
   108   54  117 1    
   109   55   56 2    
   110   55   57 1    
   111   57   58 1    
   112   57   59 1    
   113   57  118 1    
   114   58  119 1    
   115   58  120 1    
   116   58  121 1    
   117   59   60 am   BACKBONE|DICT|INTERRES
   118   59  122 1    
   119   60   61 2    
   120   60   62 1    
   121   62   63 1    
   122   62   64 1    
   123   62  123 1    
   124   63  124 1    
   125   63  125 1    
   126   63  126 1    
   127   64   65 am   BACKBONE|DICT|INTERRES
   128   64  127 1    
   129   65   66 2    
@<TRIPOS>SUBSTRUCTURE
     1 UNK         1 GROUP             0       ****    0 ROOT    
