@<TRIPOS>MOLECULE
3R135
127   129    1
SMALL
USER_CHARGES


@<TRIPOS>ATOM
      1 CA        -82.3224   22.4599  -72.0296 C.3       0 UNK        -0.1998 
      2 C         -81.7141   23.7806  -72.4758 C.2       0 UNK         0.4909 
      3 O         -80.6369   23.7714  -73.0695 O.2       0 UNK        -0.5240 
      4 N         -82.4144   24.8936  -72.2028 N.am      1 UNK        -0.4739 
      5 CA        -82.0677   26.2983  -72.4832 C.3       1 UNK         0.0864 
      6 C6        -81.4059   27.0387  -71.2865 C.3       11 UNK        -0.0881 
      7 S7        -79.9033   26.2803  -70.5787 S.3       11 UNK        -0.2682 
      8 C8        -78.9784   27.7478  -70.0205 C.3       11 UNK         0.0289 
      9 C9        -78.0401   28.2994  -71.0878 C.ar      11 UNK        -0.0687 
     10 C10       -78.4931   29.2342  -72.0255 C.ar      11 UNK        -0.0823 
     11 C11       -77.6179   29.7841  -72.9690 C.ar      11 UNK        -0.0830 
     12 C12       -76.2730   29.4021  -72.9534 C.ar      11 UNK        -0.1021 
     13 C13       -75.8083   28.4612  -72.0310 C.ar      11 UNK        -0.0753 
     14 C14       -76.6973   27.9086  -71.1051 C.ar      11 UNK        -0.0933 
     15 C15       -74.3448   28.0440  -72.0414 C.3       11 UNK         0.0166 
     16 S16       -73.4058   28.7389  -70.6408 S.3       11 UNK        -0.2615 
     17 C17       -73.5318   30.5440  -70.9183 C.3       11 UNK        -0.0865 
     18 CA        -72.2733   31.2545  -71.4987 C.3       10 UNK         0.0862 
     19 C         -71.0254   31.2394  -70.5605 C.2       10 UNK         0.5551 
     20 N         -69.8059   31.2857  -71.0816 N.am      10 UNK        -0.7319 
     21 O         -71.1620   31.2445  -69.3391 O.2       10 UNK        -0.5018 
     22 N         -72.0556   30.9838  -72.9346 N.am      10 UNK        -0.4509 
     23 C         -71.4577   29.9250  -73.4963 C.2       10 UNK         0.4899 
     24 O         -70.9342   29.0001  -72.8724 O.2       10 UNK        -0.4839 
     25 CA        -71.3909   29.9385  -75.0336 C.3       9 UNK         0.0222 
     26 CB        -70.2256   30.8200  -75.5146 C.3       9 UNK        -0.1966 
     27 N         -71.2070   28.5840  -75.5553 N.am      9 UNK        -0.4218 
     28 C         -72.1882   27.6848  -75.6942 C.2       9 UNK         0.5020 
     29 O         -73.3827   27.9407  -75.5424 O.2       9 UNK        -0.5274 
     30 CA        -71.7340   26.2566  -76.0159 C.3       8 UNK         0.0270 
     31 CB        -71.1964   25.5628  -74.7488 C.3       8 UNK        -0.1976 
     32 N         -72.8298   25.4620  -76.5714 N.am      8 UNK        -0.4313 
     33 C         -72.6562   24.4300  -77.4073 C.2       8 UNK         0.5041 
     34 O         -71.5569   24.0895  -77.8494 O.2       8 UNK        -0.5577 
     35 CA        -73.8943   23.6120  -77.8094 C.3       7 UNK         0.0284 
     36 CB        -74.2310   22.5773  -76.7233 C.3       7 UNK        -0.1958 
     37 N         -75.0743   24.4258  -78.1008 N.am      7 UNK        -0.4454 
     38 C         -75.2153   25.1992  -79.1864 C.2       7 UNK         0.5089 
     39 O         -74.3533   25.3254  -80.0569 O.2       7 UNK        -0.5125 
     40 CA        -76.5498   25.9503  -79.3367 C.3       6 UNK         0.0408 
     41 CB        -77.6139   25.0442  -79.9756 C.3       6 UNK        -0.1791 
     42 N         -77.0439   26.4636  -78.0590 N.am      6 UNK        -0.4762 
     43 C         -76.4945   27.4936  -77.3997 C.2       6 UNK         0.5007 
     44 O         -75.5964   28.1927  -77.8701 O.2       6 UNK        -0.5032 
     45 CA        -77.0250   27.7833  -75.9796 C.3       5 UNK         0.0783 
     46 C46       -78.1780   28.8238  -75.9955 C.3       11 UNK        -0.0857 
     47 S47       -77.5692   30.5147  -75.6929 S.3       11 UNK        -0.2512 
     48 C48       -78.1303   30.8111  -73.9777 C.3       11 UNK         0.0225 
     49 N         -77.3944   26.5683  -75.2447 N.am      5 UNK        -0.4615 
     50 C         -76.5313   25.6083  -74.8806 C.2       4 UNK         0.5053 
     51 O         -75.3276   25.6295  -75.1281 O.2       4 UNK        -0.5105 
     52 CA        -77.1156   24.3838  -74.1622 C.3       4 UNK         0.0263 
     53 CB        -77.3491   24.6948  -72.6796 C.3       4 UNK        -0.1981 
     54 N         -78.3602   23.9238  -74.7782 N.am      4 UNK        -0.4224 
     55 C         -78.4486   23.4453  -76.0276 C.2       3 UNK         0.4895 
     56 O         -77.4813   23.2821  -76.7709 O.2       3 UNK        -0.5091 
     57 CA        -79.8597   23.1592  -76.5600 C.3       3 UNK         0.0250 
     58 CB        -80.4040   21.8294  -76.0135 C.3       3 UNK        -0.1996 
     59 N         -80.7886   24.2494  -76.2556 N.am      3 UNK        -0.4254 
     60 C         -80.7022   25.4802  -76.7807 C.2       2 UNK         0.5004 
     61 O         -79.8479   25.8166  -77.5990 O.2       2 UNK        -0.5226 
     62 CA        -81.7285   26.5205  -76.3083 C.3       2 UNK         0.0269 
     63 CB        -82.9542   26.5259  -77.2355 C.3       2 UNK        -0.1926 
     64 N         -82.1647   26.3215  -74.9241 N.am      2 UNK        -0.4687 
     65 C         -81.3881   26.5326  -73.8515 C.2       1 UNK         0.5165 
     66 O         -80.2060   26.8700  -73.9273 O.2       1 UNK        -0.5079 
     67 H67       -83.2759   22.5983  -71.5204 H         1 UNK         0.0900 
     68 H68       -82.4874   21.8135  -72.8912 H         1 UNK         0.0900 
     69 H69       -81.6439   21.9499  -71.3464 H         1 UNK         0.0900 
     70 H70       -83.2975   24.7788  -71.7255 H         1 UNK         0.2959 
     71 H71       -83.0375   26.7867  -72.5964 H         1 UNK         0.1079 
     72 H72       -82.1300   27.1068  -70.4734 H         1 UNK         0.0837 
     73 H73       -81.1988   28.0718  -71.5650 H         1 UNK         0.0837 
     74 H74       -79.6716   28.5222  -69.6889 H         1 UNK         0.0685 
     75 H75       -78.4017   27.4703  -69.1369 H         1 UNK         0.0685 
     76 H76       -79.5280   29.5434  -72.0148 H         1 UNK         0.1434 
     77 H77       -75.5850   29.8331  -73.6679 H         1 UNK         0.1329 
     78 H78       -76.3365   27.1872  -70.3848 H         1 UNK         0.1335 
     79 H79       -73.8683   28.3433  -72.9742 H         1 UNK         0.0680 
     80 H80       -74.2810   26.9555  -72.0073 H         1 UNK         0.0680 
     81 H81       -73.7884   30.9942  -69.9578 H         1 UNK         0.1032 
     82 H82       -74.3874   30.7618  -71.5549 H         1 UNK         0.1032 
     83 H83       -72.5353   32.3133  -71.5012 H         1 UNK         0.0461 
     84 H84       -69.6804   31.2694  -72.0805 H         1 UNK         0.3453 
     85 H85       -69.0056   31.2942  -70.4693 H         1 UNK         0.3453 
     86 H86       -72.4051   31.7023  -73.5523 H         1 UNK         0.2984 
     87 H87       -72.3253   30.3477  -75.4244 H         1 UNK         0.0554 
     88 H88       -70.3462   31.8508  -75.1789 H         1 UNK         0.0847 
     89 H89       -70.1690   30.8427  -76.6031 H         1 UNK         0.0847 
     90 H90       -69.2657   30.4653  -75.1366 H         1 UNK         0.0847 
     91 H91       -70.2519   28.2696  -75.6483 H         1 UNK         0.3141 
     92 H92       -70.9325   26.3292  -76.7544 H         1 UNK         0.0743 
     93 H93       -71.9764   25.4566  -73.9934 H         1 UNK         0.0784 
     94 H94       -70.8088   24.5687  -74.9722 H         1 UNK         0.0784 
     95 H95       -70.3826   26.1321  -74.2976 H         1 UNK         0.0784 
     96 H96       -73.7609   25.6975  -76.2257 H         1 UNK         0.3213 
     97 H97       -73.6401   23.0642  -78.7196 H         1 UNK         0.0855 
     98 H98       -74.5207   23.0548  -75.7872 H         1 UNK         0.0814 
     99 H99       -73.3716   21.9397  -76.5117 H         1 UNK         0.0814 
    100 H100      -75.0482   21.9265  -77.0346 H         1 UNK         0.0814 
    101 H101      -75.8575   24.3399  -77.4608 H         1 UNK         0.3105 
    102 H102      -76.3847   26.7973  -80.0061 H         1 UNK         0.0547 
    103 H103      -77.2741   24.6619  -80.9390 H         1 UNK         0.0837 
    104 H104      -77.8455   24.1846  -79.3459 H         1 UNK         0.0837 
    105 H105      -78.5425   25.5876  -80.1511 H         1 UNK         0.0837 
    106 H106      -77.8492   25.9944  -77.6545 H         1 UNK         0.3020 
    107 H107      -76.1751   28.1990  -75.4342 H         1 UNK         0.1245 
    108 H108      -78.9164   28.5990  -75.2275 H         1 UNK         0.0781 
    109 H109      -78.7353   28.8056  -76.9344 H         1 UNK         0.0781 
    110 H110      -79.2211   30.8401  -73.9747 H         1 UNK         0.0836 
    111 H111      -77.7963   31.8016  -73.6666 H         1 UNK         0.0836 
    112 H112      -78.3622   26.4894  -74.9516 H         1 UNK         0.3022 
    113 H113      -76.3904   23.5707  -74.2303 H         1 UNK         0.0747 
    114 H114      -77.7663   23.8392  -72.1485 H         1 UNK         0.0793 
    115 H115      -76.4168   24.9698  -72.1851 H         1 UNK         0.0793 
    116 H116      -78.0381   25.5307  -72.5639 H         1 UNK         0.0793 
    117 H117      -79.2085   24.0038  -74.2176 H         1 UNK         0.3047 
    118 H118      -79.7906   23.0739  -77.6468 H         1 UNK         0.0822 
    119 H119      -81.3803   21.5959  -76.4383 H         1 UNK         0.0807 
    120 H120      -80.5047   21.8434  -74.9282 H         1 UNK         0.0807 
    121 H121      -79.7360   21.0049  -76.2662 H         1 UNK         0.0807 
    122 H122      -81.4856   24.0765  -75.5459 H         1 UNK         0.2946 
    123 H123      -81.2467   27.4991  -76.3738 H         1 UNK         0.1144 
    124 H124      -82.6576   26.6944  -78.2719 H         1 UNK         0.0793 
    125 H125      -83.6515   27.3199  -76.9675 H         1 UNK         0.0793 
    126 H126      -83.4929   25.5781  -77.2009 H         1 UNK         0.0793 
    127 H127      -83.1188   26.0201  -74.7845 H         1 UNK         0.2896 
@<TRIPOS>BOND
     1    1    2 1    
     2    1   67 1    
     3    1   68 1    
     4    1   69 1    
     5    2    3 2    
     6    2    4 am   BACKBONE|DICT|INTERRES
     7    4    5 1    
     8    4   70 1    
     9    5    6 1    
    10    5   65 1    
    11    5   71 1    
    12    6    7 1    
    13    6   72 1    
    14    6   73 1    
    15    7    8 1    
    16    8    9 1    
    17    8   74 1    
    18    8   75 1    
    19    9   10 ar   
    20    9   14 ar   
    21   10   11 ar   
    22   10   76 1    
    23   11   12 ar   
    24   11   48 1    
    25   12   13 ar   
    26   12   77 1    
    27   13   14 ar   
    28   13   15 1    
    29   14   78 1    
    30   15   16 1    
    31   15   79 1    
    32   15   80 1    
    33   16   17 1    
    34   17   18 1    
    35   17   81 1    
    36   17   82 1    
    37   18   19 1    
    38   18   22 1    
    39   18   83 1    
    40   19   20 am   BACKBONE|DICT|INTERRES
    41   19   21 2    
    42   20   84 1    
    43   20   85 1    
    44   22   23 am   BACKBONE|DICT|INTERRES
    45   22   86 1    
    46   23   24 2    
    47   23   25 1    
    48   25   26 1    
    49   25   27 1    
    50   25   87 1    
    51   26   88 1    
    52   26   89 1    
    53   26   90 1    
    54   27   28 am   BACKBONE|DICT|INTERRES
    55   27   91 1    
    56   28   29 2    
    57   28   30 1    
    58   30   31 1    
    59   30   32 1    
    60   30   92 1    
    61   31   93 1    
    62   31   94 1    
    63   31   95 1    
    64   32   33 am   BACKBONE|DICT|INTERRES
    65   32   96 1    
    66   33   34 2    
    67   33   35 1    
    68   35   36 1    
    69   35   37 1    
    70   35   97 1    
    71   36   98 1    
    72   36   99 1    
    73   36  100 1    
    74   37   38 am   BACKBONE|DICT|INTERRES
    75   37  101 1    
    76   38   39 2    
    77   38   40 1    
    78   40   41 1    
    79   40   42 1    
    80   40  102 1    
    81   41  103 1    
    82   41  104 1    
    83   41  105 1    
    84   42   43 am   BACKBONE|DICT|INTERRES
    85   42  106 1    
    86   43   44 2    
    87   43   45 1    
    88   45   46 1    
    89   45   49 1    
    90   45  107 1    
    91   46   47 1    
    92   46  108 1    
    93   46  109 1    
    94   47   48 1    
    95   48  110 1    
    96   48  111 1    
    97   49   50 am   BACKBONE|DICT|INTERRES
    98   49  112 1    
    99   50   51 2    
   100   50   52 1    
   101   52   53 1    
   102   52   54 1    
   103   52  113 1    
   104   53  114 1    
   105   53  115 1    
   106   53  116 1    
   107   54   55 am   BACKBONE|DICT|INTERRES
   108   54  117 1    
   109   55   56 2    
   110   55   57 1    
   111   57   58 1    
   112   57   59 1    
   113   57  118 1    
   114   58  119 1    
   115   58  120 1    
   116   58  121 1    
   117   59   60 am   BACKBONE|DICT|INTERRES
   118   59  122 1    
   119   60   61 2    
   120   60   62 1    
   121   62   63 1    
   122   62   64 1    
   123   62  123 1    
   124   63  124 1    
   125   63  125 1    
   126   63  126 1    
   127   64   65 am   BACKBONE|DICT|INTERRES
   128   64  127 1    
   129   65   66 2    
@<TRIPOS>SUBSTRUCTURE
     1 UNK         1 GROUP             0       ****    0 ROOT    
