@<TRIPOS>MOLECULE
3R135
127   129    1
SMALL
USER_CHARGES


@<TRIPOS>ATOM
      1 CA        -81.9969   24.6487  -73.2469 C.3       0 UNK        -0.1998 
      2 C         -81.9509   25.6930  -74.3517 C.2       0 UNK         0.4909 
      3 O         -82.8336   25.7221  -75.2101 O.2       0 UNK        -0.5240 
      4 N         -80.9171   26.5427  -74.3498 N.am      1 UNK        -0.4739 
      5 CA        -80.6683   27.5845  -75.3516 C.3       1 UNK         0.0864 
      6 C6        -79.8079   28.7328  -74.7646 C.3       11 UNK        -0.0881 
      7 S7        -80.7854   29.8583  -73.7151 S.3       11 UNK        -0.2682 
      8 C8        -80.5026   29.1912  -72.0407 C.3       11 UNK         0.0289 
      9 C9        -79.0684   29.2753  -71.5152 C.ar      11 UNK        -0.0687 
     10 C10       -78.6960   28.4060  -70.4846 C.ar      11 UNK        -0.0823 
     11 C11       -77.4083   28.4468  -69.9467 C.ar      11 UNK        -0.0830 
     12 C12       -76.4964   29.3909  -70.4192 C.ar      11 UNK        -0.1021 
     13 C13       -76.8318   30.2411  -71.4760 C.ar      11 UNK        -0.0753 
     14 C14       -78.1247   30.1899  -72.0095 C.ar      11 UNK        -0.0933 
     15 C15       -75.7937   31.2082  -72.0382 C.3       11 UNK         0.0166 
     16 S16       -74.8425   30.4871  -73.4244 S.3       11 UNK        -0.2615 
     17 C17       -73.9173   29.1471  -72.6022 C.3       11 UNK        -0.0865 
     18 CA        -72.4021   29.1077  -72.9222 C.3       10 UNK         0.0862 
     19 C         -71.6760   28.2116  -71.8774 C.2       10 UNK         0.5551 
     20 N         -71.7208   26.8922  -72.0209 N.am      10 UNK        -0.7319 
     21 O         -71.0772   28.7191  -70.9326 O.2       10 UNK        -0.5018 
     22 N         -72.1367   28.6835  -74.3055 N.am      10 UNK        -0.4509 
     23 C         -70.9174   28.6572  -74.8624 C.2       10 UNK         0.4899 
     24 O         -69.9214   29.1754  -74.3560 O.2       10 UNK        -0.4839 
     25 CA        -70.7637   27.9098  -76.1930 C.3       9 UNK         0.0222 
     26 CB        -70.7449   26.3912  -75.9467 C.3       9 UNK        -0.1966 
     27 N         -71.8400   28.2302  -77.1294 N.am      9 UNK        -0.4218 
     28 C         -71.6751   28.8485  -78.3071 C.2       9 UNK         0.5020 
     29 O         -70.5891   29.2627  -78.7167 O.2       9 UNK        -0.5274 
     30 CA        -72.9110   29.0147  -79.2130 C.3       8 UNK         0.0270 
     31 CB        -72.8618   28.0070  -80.3740 C.3       8 UNK        -0.1976 
     32 N         -74.1854   28.8617  -78.5103 N.am      8 UNK        -0.4313 
     33 C         -74.7102   29.7669  -77.6751 C.2       8 UNK         0.5041 
     34 O         -74.2008   30.8647  -77.4478 O.2       8 UNK        -0.5577 
     35 CA        -76.0307   29.3840  -76.9813 C.3       7 UNK         0.0284 
     36 CB        -77.2057   29.8653  -77.8501 C.3       7 UNK        -0.1958 
     37 N         -76.2052   27.9526  -76.6789 N.am      7 UNK        -0.4454 
     38 C         -75.3316   27.1479  -76.0571 C.2       7 UNK         0.5089 
     39 O         -74.2043   27.5053  -75.7201 O.2       7 UNK        -0.5125 
     40 CA        -75.7637   25.6854  -75.8435 C.3       6 UNK         0.0408 
     41 CB        -74.8002   24.7143  -76.5522 C.3       6 UNK        -0.1791 
     42 N         -75.9304   25.3240  -74.4307 N.am      6 UNK        -0.4762 
     43 C         -75.0159   25.2950  -73.4431 C.2       6 UNK         0.5007 
     44 O         -73.8227   25.5699  -73.5762 O.2       6 UNK        -0.5032 
     45 CA        -75.5294   24.8721  -72.0480 C.3       5 UNK         0.0783 
     46 C46       -75.9055   26.1280  -71.2242 C.3       11 UNK        -0.0857 
     47 S47       -76.7314   25.7631  -69.6315 S.3       11 UNK        -0.2512 
     48 C48       -76.9694   27.4250  -68.9073 C.3       11 UNK         0.0225 
     49 N         -76.6388   23.9181  -72.1382 N.am      5 UNK        -0.4615 
     50 C         -76.5400   22.6592  -72.5790 C.2       4 UNK         0.5053 
     51 O         -75.4834   22.1342  -72.9310 O.2       4 UNK        -0.5105 
     52 CA        -77.8425   21.8467  -72.6631 C.3       4 UNK         0.0263 
     53 CB        -78.9359   22.3053  -71.6693 C.3       4 UNK        -0.1981 
     54 N         -78.3535   21.8144  -74.0374 N.am      4 UNK        -0.4224 
     55 C         -78.7533   22.8574  -74.7794 C.2       3 UNK         0.4895 
     56 O         -78.7620   24.0286  -74.3837 O.2       3 UNK        -0.5091 
     57 CA        -79.2306   22.5285  -76.2022 C.3       3 UNK         0.0250 
     58 CB        -80.3266   21.4434  -76.2159 C.3       3 UNK        -0.1996 
     59 N         -79.7544   23.7440  -76.8117 N.am      3 UNK        -0.4254 
     60 C         -79.7487   24.0570  -78.1113 C.2       2 UNK         0.5004 
     61 O         -79.2791   23.3277  -78.9857 O.2       2 UNK        -0.5226 
     62 CA        -80.3950   25.3990  -78.5137 C.3       2 UNK         0.0269 
     63 CB        -81.6025   25.1655  -79.4377 C.3       2 UNK        -0.1926 
     64 N         -80.8348   26.1955  -77.3621 N.am      2 UNK        -0.4687 
     65 C         -80.0286   26.9428  -76.5992 C.2       1 UNK         0.5165 
     66 O         -78.8266   27.0780  -76.8249 O.2       1 UNK        -0.5079 
     67 H67       -81.2150   24.8096  -72.5052 H         1 UNK         0.0900 
     68 H68       -81.8657   23.6521  -73.6674 H         1 UNK         0.0900 
     69 H69       -82.9592   24.6820  -72.7371 H         1 UNK         0.0900 
     70 H70       -80.1909   26.4271  -73.6576 H         1 UNK         0.2959 
     71 H71       -81.6224   28.0090  -75.6736 H         1 UNK         0.1079 
     72 H72       -78.9416   28.3477  -74.2233 H         1 UNK         0.0837 
     73 H73       -79.4068   29.3581  -75.5608 H         1 UNK         0.0837 
     74 H74       -81.1466   29.7355  -71.3490 H         1 UNK         0.0685 
     75 H75       -80.8449   28.1558  -72.0232 H         1 UNK         0.0685 
     76 H76       -79.4030   27.6776  -70.1108 H         1 UNK         0.1434 
     77 H77       -75.5103   29.4344  -69.9807 H         1 UNK         0.1329 
     78 H78       -78.3860   30.8644  -72.8124 H         1 UNK         0.1335 
     79 H79       -76.2896   32.1140  -72.3901 H         1 UNK         0.0680 
     80 H80       -75.1060   31.5266  -71.2531 H         1 UNK         0.0680 
     81 H81       -74.3901   28.2001  -72.8633 H         1 UNK         0.1032 
     82 H82       -74.0399   29.2633  -71.5283 H         1 UNK         0.1032 
     83 H83       -72.0073   30.1193  -72.8088 H         1 UNK         0.0461 
     84 H84       -71.2476   26.3066  -71.3523 H         1 UNK         0.3453 
     85 H85       -72.2778   26.4711  -72.7582 H         1 UNK         0.3453 
     86 H86       -72.9115   28.2261  -74.7843 H         1 UNK         0.2984 
     87 H87       -69.7952   28.1888  -76.6131 H         1 UNK         0.0554 
     88 H88       -70.5702   25.8419  -76.8718 H         1 UNK         0.0847 
     89 H89       -71.6849   26.0379  -75.5202 H         1 UNK         0.0847 
     90 H90       -69.9499   26.1179  -75.2514 H         1 UNK         0.0847 
     91 H91       -72.7789   27.9760  -76.8314 H         1 UNK         0.3141 
     92 H92       -72.8716   30.0217  -79.6341 H         1 UNK         0.0743 
     93 H93       -71.9399   28.1161  -80.9471 H         1 UNK         0.0784 
     94 H94       -72.9028   26.9770  -80.0173 H         1 UNK         0.0784 
     95 H95       -73.6900   28.1576  -81.0669 H         1 UNK         0.0784 
     96 H96       -74.6825   27.9929  -78.6422 H         1 UNK         0.3213 
     97 H97       -76.0656   29.9174  -76.0306 H         1 UNK         0.0855 
     98 H98       -77.1173   30.9295  -78.0742 H         1 UNK         0.0814 
     99 H99       -78.1625   29.7243  -77.3542 H         1 UNK         0.0814 
    100 H100      -77.2459   29.3339  -78.8018 H         1 UNK         0.0814 
    101 H101      -77.1330   27.5742  -76.8736 H         1 UNK         0.3105 
    102 H102      -76.7455   25.5494  -76.2982 H         1 UNK         0.0547 
    103 H103      -74.7435   24.9309  -77.6195 H         1 UNK         0.0837 
    104 H104      -73.7872   24.7813  -76.1547 H         1 UNK         0.0837 
    105 H105      -75.1324   23.6816  -76.4471 H         1 UNK         0.0837 
    106 H106      -76.8758   25.0522  -74.1816 H         1 UNK         0.3020 
    107 H107      -74.7039   24.3672  -71.5410 H         1 UNK         0.1245 
    108 H108      -76.5713   26.7626  -71.8125 H         1 UNK         0.0781 
    109 H109      -75.0133   26.7211  -71.0160 H         1 UNK         0.0781 
    110 H110      -76.0385   27.7366  -68.4308 H         1 UNK         0.0836 
    111 H111      -77.7135   27.3661  -68.1118 H         1 UNK         0.0836 
    112 H112      -77.5486   24.2656  -71.8730 H         1 UNK         0.3022 
    113 H113      -77.5799   20.8196  -72.4046 H         1 UNK         0.0747 
    114 H114      -79.7881   21.6261  -71.6893 H         1 UNK         0.0793 
    115 H115      -78.5559   22.3117  -70.6466 H         1 UNK         0.0793 
    116 H116      -79.3119   23.3050  -71.8853 H         1 UNK         0.0793 
    117 H117      -78.3543   20.9011  -74.4697 H         1 UNK         0.3047 
    118 H118      -78.3633   22.1839  -76.7695 H         1 UNK         0.0822 
    119 H119      -80.6924   21.2641  -77.2272 H         1 UNK         0.0807 
    120 H120      -81.1810   21.7284  -75.6004 H         1 UNK         0.0807 
    121 H121      -79.9551   20.4890  -75.8423 H         1 UNK         0.0807 
    122 H122      -80.0719   24.4391  -76.1494 H         1 UNK         0.2946 
    123 H123      -79.6413   25.9634  -79.0679 H         1 UNK         0.1144 
    124 H124      -82.0349   26.1090  -79.7715 H         1 UNK         0.0793 
    125 H125      -82.3863   24.5936  -78.9394 H         1 UNK         0.0793 
    126 H126      -81.3121   24.6113  -80.3314 H         1 UNK         0.0793 
    127 H127      -81.7942   26.0724  -77.0563 H         1 UNK         0.2896 
@<TRIPOS>BOND
     1    1    2 1    
     2    1   67 1    
     3    1   68 1    
     4    1   69 1    
     5    2    3 2    
     6    2    4 am   BACKBONE|DICT|INTERRES
     7    4    5 1    
     8    4   70 1    
     9    5    6 1    
    10    5   65 1    
    11    5   71 1    
    12    6    7 1    
    13    6   72 1    
    14    6   73 1    
    15    7    8 1    
    16    8    9 1    
    17    8   74 1    
    18    8   75 1    
    19    9   10 ar   
    20    9   14 ar   
    21   10   11 ar   
    22   10   76 1    
    23   11   12 ar   
    24   11   48 1    
    25   12   13 ar   
    26   12   77 1    
    27   13   14 ar   
    28   13   15 1    
    29   14   78 1    
    30   15   16 1    
    31   15   79 1    
    32   15   80 1    
    33   16   17 1    
    34   17   18 1    
    35   17   81 1    
    36   17   82 1    
    37   18   19 1    
    38   18   22 1    
    39   18   83 1    
    40   19   20 am   BACKBONE|DICT|INTERRES
    41   19   21 2    
    42   20   84 1    
    43   20   85 1    
    44   22   23 am   BACKBONE|DICT|INTERRES
    45   22   86 1    
    46   23   24 2    
    47   23   25 1    
    48   25   26 1    
    49   25   27 1    
    50   25   87 1    
    51   26   88 1    
    52   26   89 1    
    53   26   90 1    
    54   27   28 am   BACKBONE|DICT|INTERRES
    55   27   91 1    
    56   28   29 2    
    57   28   30 1    
    58   30   31 1    
    59   30   32 1    
    60   30   92 1    
    61   31   93 1    
    62   31   94 1    
    63   31   95 1    
    64   32   33 am   BACKBONE|DICT|INTERRES
    65   32   96 1    
    66   33   34 2    
    67   33   35 1    
    68   35   36 1    
    69   35   37 1    
    70   35   97 1    
    71   36   98 1    
    72   36   99 1    
    73   36  100 1    
    74   37   38 am   BACKBONE|DICT|INTERRES
    75   37  101 1    
    76   38   39 2    
    77   38   40 1    
    78   40   41 1    
    79   40   42 1    
    80   40  102 1    
    81   41  103 1    
    82   41  104 1    
    83   41  105 1    
    84   42   43 am   BACKBONE|DICT|INTERRES
    85   42  106 1    
    86   43   44 2    
    87   43   45 1    
    88   45   46 1    
    89   45   49 1    
    90   45  107 1    
    91   46   47 1    
    92   46  108 1    
    93   46  109 1    
    94   47   48 1    
    95   48  110 1    
    96   48  111 1    
    97   49   50 am   BACKBONE|DICT|INTERRES
    98   49  112 1    
    99   50   51 2    
   100   50   52 1    
   101   52   53 1    
   102   52   54 1    
   103   52  113 1    
   104   53  114 1    
   105   53  115 1    
   106   53  116 1    
   107   54   55 am   BACKBONE|DICT|INTERRES
   108   54  117 1    
   109   55   56 2    
   110   55   57 1    
   111   57   58 1    
   112   57   59 1    
   113   57  118 1    
   114   58  119 1    
   115   58  120 1    
   116   58  121 1    
   117   59   60 am   BACKBONE|DICT|INTERRES
   118   59  122 1    
   119   60   61 2    
   120   60   62 1    
   121   62   63 1    
   122   62   64 1    
   123   62  123 1    
   124   63  124 1    
   125   63  125 1    
   126   63  126 1    
   127   64   65 am   BACKBONE|DICT|INTERRES
   128   64  127 1    
   129   65   66 2    
@<TRIPOS>SUBSTRUCTURE
     1 UNK         1 GROUP             0       ****    0 ROOT    
