@<TRIPOS>MOLECULE
3R135
127   129    1
SMALL
USER_CHARGES


@<TRIPOS>ATOM
      1 CA        -78.5348   31.2894  -75.2385 C.3       0 UNK        -0.1998 
      2 C         -78.9215   29.8962  -74.7660 C.2       0 UNK         0.4909 
      3 O         -78.1799   28.9437  -74.9984 O.2       0 UNK        -0.5240 
      4 N         -80.0800   29.7702  -74.1070 N.am      1 UNK        -0.4739 
      5 CA        -80.6305   28.5028  -73.6128 C.3       1 UNK         0.0864 
      6 C6        -81.8640   28.7091  -72.6883 C.3       11 UNK        -0.0881 
      7 S7        -81.7246   30.0924  -71.5005 S.3       11 UNK        -0.2682 
      8 C8        -81.0429   29.2889  -70.0156 C.3       11 UNK         0.0289 
      9 C9        -79.5549   28.9975  -70.1509 C.ar      11 UNK        -0.0687 
     10 C10       -79.0832   27.6831  -70.0715 C.ar      11 UNK        -0.0823 
     11 C11       -77.7167   27.4143  -70.1954 C.ar      11 UNK        -0.0830 
     12 C12       -76.8215   28.4694  -70.3791 C.ar      11 UNK        -0.1021 
     13 C13       -77.2794   29.7840  -70.4699 C.ar      11 UNK        -0.0753 
     14 C14       -78.6466   30.0453  -70.3461 C.ar      11 UNK        -0.0933 
     15 C15       -76.2858   30.9057  -70.7188 C.3       11 UNK         0.0166 
     16 S16       -75.8440   30.9923  -72.4841 S.3       11 UNK        -0.2615 
     17 C17       -74.0457   31.3130  -72.4099 C.3       11 UNK        -0.0865 
     18 CA        -73.1588   30.0954  -72.8034 C.3       10 UNK         0.0862 
     19 C         -73.2573   28.8968  -71.8222 C.2       10 UNK         0.5551 
     20 N         -72.8805   29.0939  -70.5659 N.am      10 UNK        -0.7319 
     21 O         -73.6657   27.7933  -72.1795 O.2       10 UNK        -0.5018 
     22 N         -73.3543   29.6682  -74.1928 N.am      10 UNK        -0.4509 
     23 C         -72.8541   30.2852  -75.2682 C.2       10 UNK         0.4899 
     24 O         -72.2335   31.3492  -75.2226 O.2       10 UNK        -0.4839 
     25 CA        -73.0639   29.5670  -76.6138 C.3       9 UNK         0.0222 
     26 CB        -72.3399   30.2447  -77.7963 C.3       9 UNK        -0.1966 
     27 N         -72.7196   28.1449  -76.5223 N.am      9 UNK        -0.4218 
     28 C         -71.5274   27.5953  -76.2451 C.2       9 UNK         0.5020 
     29 O         -70.4820   28.2324  -76.1094 O.2       9 UNK        -0.5274 
     30 CA        -71.4957   26.0657  -76.0677 C.3       8 UNK         0.0270 
     31 CB        -71.6146   25.7049  -74.5779 C.3       8 UNK        -0.1976 
     32 N         -72.5480   25.3737  -76.8186 N.am      8 UNK        -0.4313 
     33 C         -72.5671   25.2457  -78.1537 C.2       8 UNK         0.5041 
     34 O         -71.6528   25.6170  -78.8909 O.2       8 UNK        -0.5577 
     35 CA        -73.8313   24.6270  -78.7761 C.3       7 UNK         0.0284 
     36 CB        -73.8044   23.0946  -78.6646 C.3       7 UNK        -0.1958 
     37 N         -75.0626   25.1487  -78.1772 N.am      7 UNK        -0.4454 
     38 C         -75.4752   26.4218  -78.2700 C.2       7 UNK         0.5089 
     39 O         -74.9054   27.2825  -78.9399 O.2       7 UNK        -0.5125 
     40 CA        -76.7086   26.8142  -77.4432 C.3       6 UNK         0.0408 
     41 CB        -78.0085   26.5377  -78.2139 C.3       6 UNK        -0.1791 
     42 N         -76.7461   26.1275  -76.1534 N.am      6 UNK        -0.4762 
     43 C         -75.9349   26.3990  -75.1202 C.2       6 UNK         0.5007 
     44 O         -75.0523   27.2561  -75.1426 O.2       6 UNK        -0.5032 
     45 CA        -76.1255   25.5242  -73.8678 C.3       5 UNK         0.0783 
     46 C46       -77.3095   26.0697  -73.0373 C.3       11 UNK        -0.0857 
     47 S47       -77.7757   25.0228  -71.6116 S.3       11 UNK        -0.2512 
     48 C48       -77.1965   25.9848  -70.1774 C.3       11 UNK         0.0225 
     49 N         -76.2919   24.1141  -74.2340 N.am      5 UNK        -0.4615 
     50 C         -75.3401   23.3625  -74.8037 C.2       4 UNK         0.5053 
     51 O         -74.2113   23.7749  -75.0674 O.2       4 UNK        -0.5105 
     52 CA        -75.7159   21.9213  -75.1878 C.3       4 UNK         0.0263 
     53 CB        -75.4287   20.9649  -74.0201 C.3       4 UNK        -0.1981 
     54 N         -77.1090   21.7666  -75.6135 N.am      4 UNK        -0.4224 
     55 C         -77.6828   22.4079  -76.6415 C.2       3 UNK         0.4895 
     56 O         -77.0887   23.2096  -77.3642 O.2       3 UNK        -0.5091 
     57 CA        -79.1785   22.1390  -76.8971 C.3       3 UNK         0.0250 
     58 CB        -79.7671   20.9806  -76.0583 C.3       3 UNK        -0.1996 
     59 N         -79.9954   23.3474  -76.7276 N.am      3 UNK        -0.4254 
     60 C         -80.0547   24.1358  -75.6439 C.2       2 UNK         0.5004 
     61 O         -79.3710   23.9773  -74.6296 O.2       2 UNK        -0.5226 
     62 CA        -81.0733   25.2794  -75.6997 C.3       2 UNK         0.0269 
     63 CB        -82.5040   24.7521  -75.4837 C.3       2 UNK        -0.1926 
     64 N         -80.7635   26.2749  -74.6734 N.am      2 UNK        -0.4687 
     65 C         -81.0118   27.5835  -74.7962 C.2       1 UNK         0.5165 
     66 O         -81.5626   28.0743  -75.7862 O.2       1 UNK        -0.5079 
     67 H67       -77.5030   31.5067  -74.9644 H         1 UNK         0.0900 
     68 H68       -79.1701   32.0583  -74.7990 H         1 UNK         0.0900 
     69 H69       -78.6185   31.3527  -76.3230 H         1 UNK         0.0900 
     70 H70       -80.6558   30.5827  -73.9404 H         1 UNK         0.2959 
     71 H71       -79.8426   28.0179  -73.0322 H         1 UNK         0.1079 
     72 H72       -82.0838   27.7885  -72.1446 H         1 UNK         0.0837 
     73 H73       -82.7546   28.9169  -73.2857 H         1 UNK         0.0837 
     74 H74       -81.6088   28.3816  -69.7987 H         1 UNK         0.0685 
     75 H75       -81.1906   29.9523  -69.1624 H         1 UNK         0.0685 
     76 H76       -79.7768   26.8649  -69.9322 H         1 UNK         0.1434 
     77 H77       -75.7659   28.2653  -70.4869 H         1 UNK         0.1329 
     78 H78       -79.0087   31.0618  -70.4173 H         1 UNK         0.1335 
     79 H79       -75.3994   30.7324  -70.1073 H         1 UNK         0.0680 
     80 H80       -76.6959   31.8661  -70.4030 H         1 UNK         0.0680 
     81 H81       -73.8348   32.1444  -73.0837 H         1 UNK         0.1032 
     82 H82       -73.7708   31.6833  -71.4216 H         1 UNK         0.1032 
     83 H83       -72.1182   30.4187  -72.7317 H         1 UNK         0.0461 
     84 H84       -72.9281   28.3240  -69.9177 H         1 UNK         0.3453 
     85 H85       -72.5220   29.9837  -70.2578 H         1 UNK         0.3453 
     86 H86       -73.8525   28.7889  -74.3036 H         1 UNK         0.2984 
     87 H87       -74.1350   29.6049  -76.8184 H         1 UNK         0.0554 
     88 H88       -72.6890   31.2691  -77.9302 H         1 UNK         0.0847 
     89 H89       -72.5270   29.7133  -78.7296 H         1 UNK         0.0847 
     90 H90       -71.2611   30.2875  -77.6442 H         1 UNK         0.0847 
     91 H91       -73.5205   27.5236  -76.5090 H         1 UNK         0.3141 
     92 H92       -70.5286   25.7105  -76.4297 H         1 UNK         0.0743 
     93 H93       -70.8313   26.1889  -73.9931 H         1 UNK         0.0784 
     94 H94       -72.5729   26.0206  -74.1626 H         1 UNK         0.0784 
     95 H95       -71.5206   24.6302  -74.4208 H         1 UNK         0.0784 
     96 H96       -73.3010   24.9610  -76.2721 H         1 UNK         0.3213 
     97 H97       -73.8436   24.8899  -79.8361 H         1 UNK         0.0855 
     98 H98       -73.7487   22.7657  -77.6275 H         1 UNK         0.0814 
     99 H99       -72.9365   22.6837  -79.1818 H         1 UNK         0.0814 
    100 H100      -74.6921   22.6467  -79.1120 H         1 UNK         0.0814 
    101 H101      -75.6471   24.4908  -77.6682 H         1 UNK         0.3105 
    102 H102      -76.6531   27.8882  -77.2516 H         1 UNK         0.0547 
    103 H103      -78.0066   27.0531  -79.1752 H         1 UNK         0.0837 
    104 H104      -78.1463   25.4748  -78.4144 H         1 UNK         0.0837 
    105 H105      -78.8767   26.8938  -77.6590 H         1 UNK         0.0837 
    106 H106      -77.3964   25.3601  -76.0610 H         1 UNK         0.3020 
    107 H107      -75.2168   25.6097  -73.2666 H         1 UNK         0.1245 
    108 H108      -78.1967   26.1624  -73.6621 H         1 UNK         0.0781 
    109 H109      -77.0844   27.0860  -72.7148 H         1 UNK         0.0781 
    110 H110      -77.5246   25.4921  -69.2613 H         1 UNK         0.0836 
    111 H111      -76.1054   25.9667  -70.1622 H         1 UNK         0.0836 
    112 H112      -77.2152   23.7240  -74.0841 H         1 UNK         0.3022 
    113 H113      -75.0848   21.6294  -76.0288 H         1 UNK         0.0747 
    114 H114      -74.3887   21.0431  -73.6994 H         1 UNK         0.0793 
    115 H115      -75.6004   19.9265  -74.3044 H         1 UNK         0.0793 
    116 H116      -76.0541   21.1855  -73.1538 H         1 UNK         0.0793 
    117 H117      -77.6853   21.1484  -75.0614 H         1 UNK         0.3047 
    118 H118      -79.2546   21.8564  -77.9482 H         1 UNK         0.0822 
    119 H119      -80.8002   20.7819  -76.3440 H         1 UNK         0.0807 
    120 H120      -79.7631   21.1987  -74.9895 H         1 UNK         0.0807 
    121 H121      -79.2139   20.0535  -76.2160 H         1 UNK         0.0807 
    122 H122      -80.5799   23.5810  -77.5182 H         1 UNK         0.2946 
    123 H123      -81.0010   25.7384  -76.6887 H         1 UNK         0.1144 
    124 H124      -82.7710   24.0084  -76.2355 H         1 UNK         0.0793 
    125 H125      -83.2378   25.5554  -75.5528 H         1 UNK         0.0793 
    126 H126      -82.6145   24.2819  -74.5056 H         1 UNK         0.0793 
    127 H127      -80.2757   25.9085  -73.8653 H         1 UNK         0.2896 
@<TRIPOS>BOND
     1    1    2 1    
     2    1   67 1    
     3    1   68 1    
     4    1   69 1    
     5    2    3 2    
     6    2    4 am   BACKBONE|DICT|INTERRES
     7    4    5 1    
     8    4   70 1    
     9    5    6 1    
    10    5   65 1    
    11    5   71 1    
    12    6    7 1    
    13    6   72 1    
    14    6   73 1    
    15    7    8 1    
    16    8    9 1    
    17    8   74 1    
    18    8   75 1    
    19    9   10 ar   
    20    9   14 ar   
    21   10   11 ar   
    22   10   76 1    
    23   11   12 ar   
    24   11   48 1    
    25   12   13 ar   
    26   12   77 1    
    27   13   14 ar   
    28   13   15 1    
    29   14   78 1    
    30   15   16 1    
    31   15   79 1    
    32   15   80 1    
    33   16   17 1    
    34   17   18 1    
    35   17   81 1    
    36   17   82 1    
    37   18   19 1    
    38   18   22 1    
    39   18   83 1    
    40   19   20 am   BACKBONE|DICT|INTERRES
    41   19   21 2    
    42   20   84 1    
    43   20   85 1    
    44   22   23 am   BACKBONE|DICT|INTERRES
    45   22   86 1    
    46   23   24 2    
    47   23   25 1    
    48   25   26 1    
    49   25   27 1    
    50   25   87 1    
    51   26   88 1    
    52   26   89 1    
    53   26   90 1    
    54   27   28 am   BACKBONE|DICT|INTERRES
    55   27   91 1    
    56   28   29 2    
    57   28   30 1    
    58   30   31 1    
    59   30   32 1    
    60   30   92 1    
    61   31   93 1    
    62   31   94 1    
    63   31   95 1    
    64   32   33 am   BACKBONE|DICT|INTERRES
    65   32   96 1    
    66   33   34 2    
    67   33   35 1    
    68   35   36 1    
    69   35   37 1    
    70   35   97 1    
    71   36   98 1    
    72   36   99 1    
    73   36  100 1    
    74   37   38 am   BACKBONE|DICT|INTERRES
    75   37  101 1    
    76   38   39 2    
    77   38   40 1    
    78   40   41 1    
    79   40   42 1    
    80   40  102 1    
    81   41  103 1    
    82   41  104 1    
    83   41  105 1    
    84   42   43 am   BACKBONE|DICT|INTERRES
    85   42  106 1    
    86   43   44 2    
    87   43   45 1    
    88   45   46 1    
    89   45   49 1    
    90   45  107 1    
    91   46   47 1    
    92   46  108 1    
    93   46  109 1    
    94   47   48 1    
    95   48  110 1    
    96   48  111 1    
    97   49   50 am   BACKBONE|DICT|INTERRES
    98   49  112 1    
    99   50   51 2    
   100   50   52 1    
   101   52   53 1    
   102   52   54 1    
   103   52  113 1    
   104   53  114 1    
   105   53  115 1    
   106   53  116 1    
   107   54   55 am   BACKBONE|DICT|INTERRES
   108   54  117 1    
   109   55   56 2    
   110   55   57 1    
   111   57   58 1    
   112   57   59 1    
   113   57  118 1    
   114   58  119 1    
   115   58  120 1    
   116   58  121 1    
   117   59   60 am   BACKBONE|DICT|INTERRES
   118   59  122 1    
   119   60   61 2    
   120   60   62 1    
   121   62   63 1    
   122   62   64 1    
   123   62  123 1    
   124   63  124 1    
   125   63  125 1    
   126   63  126 1    
   127   64   65 am   BACKBONE|DICT|INTERRES
   128   64  127 1    
   129   65   66 2    
@<TRIPOS>SUBSTRUCTURE
     1 UNK         1 GROUP             0       ****    0 ROOT    
