@<TRIPOS>MOLECULE
3R135
127   129    1
SMALL
USER_CHARGES


@<TRIPOS>ATOM
      1 CA        -78.8198   28.0734  -78.7286 C.3       0 UNK        -0.1998 
      2 C         -79.1552   27.7286  -77.2854 C.2       0 UNK         0.4909 
      3 O         -78.7247   26.6889  -76.7828 O.2       0 UNK        -0.5240 
      4 N         -79.9206   28.5998  -76.6161 N.am      1 UNK        -0.4739 
      5 CA        -80.4087   28.3911  -75.2513 C.3       1 UNK         0.0864 
      6 C6        -80.7029   29.7391  -74.5382 C.3       11 UNK        -0.0881 
      7 S7        -80.2262   29.6765  -72.7796 S.3       11 UNK        -0.2682 
      8 C8        -78.4346   29.9497  -72.9453 C.3       11 UNK         0.0289 
      9 C9        -77.6373   29.0630  -72.0041 C.ar      11 UNK        -0.0687 
     10 C10       -77.5728   27.6839  -72.2272 C.ar      11 UNK        -0.0823 
     11 C11       -76.8434   26.8586  -71.3681 C.ar      11 UNK        -0.0830 
     12 C12       -76.1530   27.4269  -70.2934 C.ar      11 UNK        -0.1021 
     13 C13       -76.2002   28.8061  -70.0667 C.ar      11 UNK        -0.0753 
     14 C14       -76.9524   29.6185  -70.9202 C.ar      11 UNK        -0.0933 
     15 C15       -75.4604   29.4078  -68.8815 C.3       11 UNK         0.0166 
     16 S16       -73.7237   29.7813  -69.2805 S.3       11 UNK        -0.2615 
     17 C17       -73.8607   31.3706  -70.1779 C.3       11 UNK        -0.0865 
     18 CA        -73.2489   31.3493  -71.6040 C.3       10 UNK         0.0862 
     19 C         -71.6911   31.2859  -71.5739 C.2       10 UNK         0.5551 
     20 N         -71.0451   30.2698  -72.1333 N.am      10 UNK        -0.7319 
     21 O         -71.0549   32.1917  -71.0401 O.2       10 UNK        -0.5018 
     22 N         -73.9047   30.3519  -72.4628 N.am      10 UNK        -0.4509 
     23 C         -73.8763   30.3641  -73.8003 C.2       10 UNK         0.4899 
     24 O         -73.3737   31.2642  -74.4759 O.2       10 UNK        -0.4839 
     25 CA        -74.5117   29.1541  -74.5069 C.3       9 UNK         0.0222 
     26 CB        -75.6428   29.6119  -75.4427 C.3       9 UNK        -0.1966 
     27 N         -73.5369   28.3785  -75.2815 N.am      9 UNK        -0.4218 
     28 C         -72.3789   27.8777  -74.8199 C.2       9 UNK         0.5020 
     29 O         -72.0192   27.9751  -73.6454 O.2       9 UNK        -0.5274 
     30 CA        -71.4674   27.1207  -75.8061 C.3       8 UNK         0.0270 
     31 CB        -71.0738   25.7424  -75.2439 C.3       8 UNK        -0.1976 
     32 N         -72.0636   26.9471  -77.1347 N.am      8 UNK        -0.4313 
     33 C         -71.9702   27.8354  -78.1355 C.2       8 UNK         0.5041 
     34 O         -71.3468   28.8934  -78.0458 O.2       8 UNK        -0.5577 
     35 CA        -72.6923   27.5108  -79.4593 C.3       7 UNK         0.0284 
     36 CB        -71.6887   26.9978  -80.5050 C.3       7 UNK        -0.1958 
     37 N         -73.7842   26.5415  -79.3291 N.am      7 UNK        -0.4454 
     38 C         -74.9186   26.7495  -78.6475 C.2       7 UNK         0.5089 
     39 O         -75.1773   27.8059  -78.0719 O.2       7 UNK        -0.5125 
     40 CA        -75.9063   25.5693  -78.5327 C.3       6 UNK         0.0408 
     41 CB        -75.6291   24.4108  -79.5175 C.3       6 UNK        -0.1791 
     42 N         -75.9785   25.0627  -77.1565 N.am      6 UNK        -0.4762 
     43 C         -74.9403   24.6436  -76.4154 C.2       6 UNK         0.5007 
     44 O         -73.7768   24.6225  -76.8209 O.2       6 UNK        -0.5032 
     45 CA        -75.2380   24.1536  -74.9880 C.3       5 UNK         0.0783 
     46 C46       -75.3567   25.3360  -74.0002 C.3       11 UNK        -0.0857 
     47 S47       -75.2510   24.7730  -72.2700 S.3       11 UNK        -0.2512 
     48 C48       -76.8294   25.3508  -71.5778 C.3       11 UNK         0.0225 
     49 N         -76.3866   23.2430  -74.9291 N.am      5 UNK        -0.4615 
     50 C         -76.3869   22.0037  -75.4321 C.2       4 UNK         0.5053 
     51 O         -75.4606   21.5384  -76.0966 O.2       4 UNK        -0.5105 
     52 CA        -77.5838   21.0947  -75.1053 C.3       4 UNK         0.0263 
     53 CB        -77.4567   20.5281  -73.6768 C.3       4 UNK        -0.1981 
     54 N         -78.9224   21.6580  -75.3303 N.am      4 UNK        -0.4224 
     55 C         -79.5383   22.6614  -74.6909 C.2       3 UNK         0.4895 
     56 O         -78.9928   23.4211  -73.8850 O.2       3 UNK        -0.5091 
     57 CA        -81.0438   22.7869  -74.9625 C.3       3 UNK         0.0250 
     58 CB        -81.7942   21.5986  -74.3180 C.3       3 UNK        -0.1996 
     59 N         -81.5212   24.0544  -74.4154 N.am      3 UNK        -0.4254 
     60 C         -82.7505   24.5684  -74.5482 C.2       2 UNK         0.5004 
     61 O         -83.6594   24.0370  -75.1871 O.2       2 UNK        -0.5226 
     62 CA        -83.0050   25.9180  -73.8578 C.3       2 UNK         0.0269 
     63 CB        -83.2461   25.7251  -72.3515 C.3       2 UNK        -0.1926 
     64 N         -81.9068   26.8653  -74.0610 N.am      2 UNK        -0.4687 
     65 C         -81.6280   27.4489  -75.2339 C.2       1 UNK         0.5165 
     66 O         -82.3050   27.2907  -76.2538 O.2       1 UNK        -0.5079 
     67 H67       -79.4179   28.9068  -79.0964 H         1 UNK         0.0900 
     68 H68       -79.0064   27.2156  -79.3741 H         1 UNK         0.0900 
     69 H69       -77.7689   28.3474  -78.8135 H         1 UNK         0.0900 
     70 H70       -80.2821   29.4129  -77.0939 H         1 UNK         0.2959 
     71 H71       -79.6110   27.8734  -74.7159 H         1 UNK         0.1079 
     72 H72       -80.1496   30.5578  -75.0021 H         1 UNK         0.0837 
     73 H73       -81.7542   30.0246  -74.6167 H         1 UNK         0.0837 
     74 H74       -78.1269   29.7254  -73.9649 H         1 UNK         0.0685 
     75 H75       -78.2138   31.0054  -72.7804 H         1 UNK         0.0685 
     76 H76       -78.1048   27.2495  -73.0610 H         1 UNK         0.1434 
     77 H77       -75.5823   26.7924  -69.6287 H         1 UNK         0.1329 
     78 H78       -77.0054   30.6835  -70.7420 H         1 UNK         0.1335 
     79 H79       -75.9637   30.3083  -68.5261 H         1 UNK         0.0680 
     80 H80       -75.4805   28.7051  -68.0471 H         1 UNK         0.0680 
     81 H81       -73.3871   32.1459  -69.5724 H         1 UNK         0.1032 
     82 H82       -74.9072   31.6677  -70.2423 H         1 UNK         0.1032 
     83 H83       -73.4757   32.3234  -72.0421 H         1 UNK         0.0461 
     84 H84       -70.0387   30.2524  -72.1040 H         1 UNK         0.3453 
     85 H85       -71.5479   29.5106  -72.5844 H         1 UNK         0.3453 
     86 H86       -74.3070   29.5599  -71.9809 H         1 UNK         0.2984 
     87 H87       -74.9403   28.4947  -73.7495 H         1 UNK         0.0554 
     88 H88       -76.2919   28.7803  -75.7191 H         1 UNK         0.0847 
     89 H89       -75.2513   30.0513  -76.3610 H         1 UNK         0.0847 
     90 H90       -76.2616   30.3755  -74.9732 H         1 UNK         0.0847 
     91 H91       -73.7509   28.2535  -76.2626 H         1 UNK         0.3141 
     92 H92       -70.5521   27.7083  -75.9033 H         1 UNK         0.0743 
     93 H93       -70.4954   25.8474  -74.3251 H         1 UNK         0.0784 
     94 H94       -71.9473   25.1360  -75.0049 H         1 UNK         0.0784 
     95 H95       -70.4580   25.1842  -75.9493 H         1 UNK         0.0784 
     96 H96       -72.6209   26.1055  -77.2668 H         1 UNK         0.3213 
     97 H97       -73.1216   28.4452  -79.8275 H         1 UNK         0.0855 
     98 H98       -70.8778   27.7130  -80.6513 H         1 UNK         0.0814 
     99 H99       -72.1646   26.8495  -81.4745 H         1 UNK         0.0814 
    100 H100      -71.2373   26.0522  -80.2018 H         1 UNK         0.0814 
    101 H101      -73.6353   25.6309  -79.7391 H         1 UNK         0.3105 
    102 H102      -76.8915   25.9673  -78.7712 H         1 UNK         0.0547 
    103 H103      -75.6085   24.7648  -80.5492 H         1 UNK         0.0837 
    104 H104      -74.6829   23.9073  -79.3164 H         1 UNK         0.0837 
    105 H105      -76.4145   23.6573  -79.4579 H         1 UNK         0.0837 
    106 H106      -76.8947   25.1052  -76.7273 H         1 UNK         0.3020 
    107 H107      -74.3607   23.5726  -74.6917 H         1 UNK         0.1245 
    108 H108      -76.2778   25.8949  -74.1725 H         1 UNK         0.0781 
    109 H109      -74.5389   26.0410  -74.1450 H         1 UNK         0.0781 
    110 H110      -76.9935   24.8549  -70.6201 H         1 UNK         0.0836 
    111 H111      -77.6505   25.0365  -72.2233 H         1 UNK         0.0836 
    112 H112      -77.2004   23.5376  -74.3954 H         1 UNK         0.3022 
    113 H113      -77.5153   20.2476  -75.7900 H         1 UNK         0.0747 
    114 H114      -78.2367   19.7953  -73.4699 H         1 UNK         0.0793 
    115 H115      -76.4975   20.0269  -73.5399 H         1 UNK         0.0793 
    116 H116      -77.5229   21.3104  -72.9197 H         1 UNK         0.0793 
    117 H117      -79.4733   21.1449  -76.0050 H         1 UNK         0.3047 
    118 H118      -81.2051   22.7905  -76.0424 H         1 UNK         0.0822 
    119 H119      -82.8597   21.6173  -74.5451 H         1 UNK         0.0807 
    120 H120      -81.6855   21.5997  -73.2326 H         1 UNK         0.0807 
    121 H121      -81.4172   20.6417  -74.6804 H         1 UNK         0.0807 
    122 H122      -80.8182   24.5623  -73.8925 H         1 UNK         0.2946 
    123 H123      -83.9108   26.3451  -74.2951 H         1 UNK         0.1144 
    124 H124      -83.5083   26.6667  -71.8686 H         1 UNK         0.0793 
    125 H125      -82.3675   25.3220  -71.8464 H         1 UNK         0.0793 
    126 H126      -84.0699   25.0319  -72.1751 H         1 UNK         0.0793 
    127 H127      -81.3358   27.0847  -73.2566 H         1 UNK         0.2896 
@<TRIPOS>BOND
     1    1    2 1    
     2    1   67 1    
     3    1   68 1    
     4    1   69 1    
     5    2    3 2    
     6    2    4 am   BACKBONE|DICT|INTERRES
     7    4    5 1    
     8    4   70 1    
     9    5    6 1    
    10    5   65 1    
    11    5   71 1    
    12    6    7 1    
    13    6   72 1    
    14    6   73 1    
    15    7    8 1    
    16    8    9 1    
    17    8   74 1    
    18    8   75 1    
    19    9   10 ar   
    20    9   14 ar   
    21   10   11 ar   
    22   10   76 1    
    23   11   12 ar   
    24   11   48 1    
    25   12   13 ar   
    26   12   77 1    
    27   13   14 ar   
    28   13   15 1    
    29   14   78 1    
    30   15   16 1    
    31   15   79 1    
    32   15   80 1    
    33   16   17 1    
    34   17   18 1    
    35   17   81 1    
    36   17   82 1    
    37   18   19 1    
    38   18   22 1    
    39   18   83 1    
    40   19   20 am   BACKBONE|DICT|INTERRES
    41   19   21 2    
    42   20   84 1    
    43   20   85 1    
    44   22   23 am   BACKBONE|DICT|INTERRES
    45   22   86 1    
    46   23   24 2    
    47   23   25 1    
    48   25   26 1    
    49   25   27 1    
    50   25   87 1    
    51   26   88 1    
    52   26   89 1    
    53   26   90 1    
    54   27   28 am   BACKBONE|DICT|INTERRES
    55   27   91 1    
    56   28   29 2    
    57   28   30 1    
    58   30   31 1    
    59   30   32 1    
    60   30   92 1    
    61   31   93 1    
    62   31   94 1    
    63   31   95 1    
    64   32   33 am   BACKBONE|DICT|INTERRES
    65   32   96 1    
    66   33   34 2    
    67   33   35 1    
    68   35   36 1    
    69   35   37 1    
    70   35   97 1    
    71   36   98 1    
    72   36   99 1    
    73   36  100 1    
    74   37   38 am   BACKBONE|DICT|INTERRES
    75   37  101 1    
    76   38   39 2    
    77   38   40 1    
    78   40   41 1    
    79   40   42 1    
    80   40  102 1    
    81   41  103 1    
    82   41  104 1    
    83   41  105 1    
    84   42   43 am   BACKBONE|DICT|INTERRES
    85   42  106 1    
    86   43   44 2    
    87   43   45 1    
    88   45   46 1    
    89   45   49 1    
    90   45  107 1    
    91   46   47 1    
    92   46  108 1    
    93   46  109 1    
    94   47   48 1    
    95   48  110 1    
    96   48  111 1    
    97   49   50 am   BACKBONE|DICT|INTERRES
    98   49  112 1    
    99   50   51 2    
   100   50   52 1    
   101   52   53 1    
   102   52   54 1    
   103   52  113 1    
   104   53  114 1    
   105   53  115 1    
   106   53  116 1    
   107   54   55 am   BACKBONE|DICT|INTERRES
   108   54  117 1    
   109   55   56 2    
   110   55   57 1    
   111   57   58 1    
   112   57   59 1    
   113   57  118 1    
   114   58  119 1    
   115   58  120 1    
   116   58  121 1    
   117   59   60 am   BACKBONE|DICT|INTERRES
   118   59  122 1    
   119   60   61 2    
   120   60   62 1    
   121   62   63 1    
   122   62   64 1    
   123   62  123 1    
   124   63  124 1    
   125   63  125 1    
   126   63  126 1    
   127   64   65 am   BACKBONE|DICT|INTERRES
   128   64  127 1    
   129   65   66 2    
@<TRIPOS>SUBSTRUCTURE
     1 UNK         1 GROUP             0       ****    0 ROOT    
