@<TRIPOS>MOLECULE
3R135
127   129    1
SMALL
USER_CHARGES


@<TRIPOS>ATOM
      1 CA        -81.6963   22.0952  -72.2561 C.3       0 UNK        -0.1998 
      2 C         -81.4291   23.4335  -72.9251 C.2       0 UNK         0.4909 
      3 O         -80.7158   23.4802  -73.9277 O.2       0 UNK        -0.5240 
      4 N         -82.0150   24.5172  -72.3945 N.am      1 UNK        -0.4739 
      5 CA        -81.8322   25.9246  -72.7976 C.3       1 UNK         0.0864 
      6 C6        -80.4814   26.5196  -72.3174 C.3       11 UNK        -0.0881 
      7 S7        -80.3136   26.5305  -70.4967 S.3       11 UNK        -0.2682 
      8 C8        -78.5062   26.3558  -70.2399 C.3       11 UNK         0.0289 
      9 C9        -77.6367   27.5751  -70.5717 C.ar      11 UNK        -0.0687 
     10 C10       -78.1338   28.7114  -71.2203 C.ar      11 UNK        -0.0823 
     11 C11       -77.2935   29.7702  -71.5631 C.ar      11 UNK        -0.0830 
     12 C12       -75.9585   29.7456  -71.1614 C.ar      11 UNK        -0.1021 
     13 C13       -75.4372   28.6277  -70.5065 C.ar      11 UNK        -0.0753 
     14 C14       -76.2786   27.5425  -70.2292 C.ar      11 UNK        -0.0933 
     15 C15       -73.9711   28.5957  -70.0923 C.3       11 UNK         0.0166 
     16 S16       -72.8421   28.4672  -71.5203 S.3       11 UNK        -0.2615 
     17 C17       -72.5562   30.2162  -71.9748 C.3       11 UNK        -0.0865 
     18 CA        -73.1725   30.6031  -73.3521 C.3       10 UNK         0.0862 
     19 C         -73.1761   32.1410  -73.6082 C.2       10 UNK         0.5551 
     20 N         -73.0601   32.6042  -74.8469 N.am      10 UNK        -0.7319 
     21 O         -73.3188   32.9293  -72.6766 O.2       10 UNK        -0.5018 
     22 N         -72.6584   29.7934  -74.4674 N.am      10 UNK        -0.4509 
     23 C         -71.4033   29.7502  -74.9284 C.2       10 UNK         0.4899 
     24 O         -70.4707   30.4117  -74.4687 O.2       10 UNK        -0.4839 
     25 CA        -71.1733   28.7871  -76.1088 C.3       9 UNK         0.0222 
     26 CB        -69.7266   28.8128  -76.6467 C.3       9 UNK        -0.1966 
     27 N         -71.5950   27.4187  -75.7847 N.am      9 UNK        -0.4218 
     28 C         -71.1175   26.6258  -74.8103 C.2       9 UNK         0.5020 
     29 O         -70.1714   26.9266  -74.0807 O.2       9 UNK        -0.5274 
     30 CA        -71.7977   25.2591  -74.6006 C.3       8 UNK         0.0270 
     31 CB        -72.4137   25.1635  -73.1946 C.3       8 UNK        -0.1976 
     32 N         -72.8299   24.9664  -75.6008 N.am      8 UNK        -0.4313 
     33 C         -72.5778   24.3998  -76.7890 C.2       8 UNK         0.5041 
     34 O         -71.4551   24.0447  -77.1507 O.2       8 UNK        -0.5577 
     35 CA        -73.7637   24.2056  -77.7484 C.3       7 UNK         0.0284 
     36 CB        -74.5165   22.9058  -77.4252 C.3       7 UNK        -0.1958 
     37 N         -74.7019   25.3320  -77.7804 N.am      7 UNK        -0.4454 
     38 C         -74.3952   26.5624  -78.2175 C.2       7 UNK         0.5089 
     39 O         -73.2606   26.9155  -78.5383 O.2       7 UNK        -0.5125 
     40 CA        -75.5477   27.5746  -78.3019 C.3       6 UNK         0.0408 
     41 CB        -76.4644   27.2710  -79.4982 C.3       6 UNK        -0.1791 
     42 N         -76.3315   27.6036  -77.0689 N.am      6 UNK        -0.4762 
     43 C         -75.9137   28.1828  -75.9341 C.2       6 UNK         0.5007 
     44 O         -74.8460   28.7862  -75.8359 O.2       6 UNK        -0.5032 
     45 CA        -76.8143   28.0109  -74.6911 C.3       5 UNK         0.0783 
     46 C46       -77.9292   29.0911  -74.6385 C.3       11 UNK        -0.0857 
     47 S47       -77.2911   30.7397  -74.1554 S.3       11 UNK        -0.2512 
     48 C48       -77.8218   30.9121  -72.4161 C.3       11 UNK         0.0225 
     49 N         -77.3492   26.6435  -74.6006 N.am      5 UNK        -0.4615 
     50 C         -76.5783   25.5518  -74.4679 C.2       4 UNK         0.5053 
     51 O         -75.3536   25.5912  -74.3697 O.2       4 UNK        -0.5105 
     52 CA        -77.2554   24.1743  -74.5207 C.3       4 UNK         0.0263 
     53 CB        -77.5553   23.6347  -73.1144 C.3       4 UNK        -0.1981 
     54 N         -78.4549   24.1116  -75.3600 N.am      4 UNK        -0.4224 
     55 C         -78.4508   24.2885  -76.6896 C.2       3 UNK         0.4895 
     56 O         -77.4588   24.6609  -77.3180 O.2       3 UNK        -0.5091 
     57 CA        -79.7432   23.9923  -77.4609 C.3       3 UNK         0.0250 
     58 CB        -79.8259   22.4971  -77.8098 C.3       3 UNK        -0.1996 
     59 N         -80.9508   24.3916  -76.7328 N.am      3 UNK        -0.4254 
     60 C         -81.9671   25.0778  -77.2778 C.2       2 UNK         0.5004 
     61 O         -81.9871   25.4521  -78.4514 O.2       2 UNK        -0.5226 
     62 CA        -83.1833   25.4018  -76.3860 C.3       2 UNK         0.0269 
     63 CB        -84.3426   24.4395  -76.6935 C.3       2 UNK        -0.1926 
     64 N         -82.9071   25.3657  -74.9478 N.am      2 UNK        -0.4687 
     65 C         -82.0775   26.1981  -74.3036 C.2       1 UNK         0.5165 
     66 O         -81.5045   27.1355  -74.8622 O.2       1 UNK        -0.5079 
     67 H67       -82.1684   21.4119  -72.9612 H         1 UNK         0.0900 
     68 H68       -80.7576   21.6506  -71.9268 H         1 UNK         0.0900 
     69 H69       -82.3481   22.1950  -71.3885 H         1 UNK         0.0900 
     70 H70       -82.6055   24.3918  -71.5837 H         1 UNK         0.2959 
     71 H71       -82.6243   26.4797  -72.2920 H         1 UNK         0.1079 
     72 H72       -79.6450   25.9884  -72.7677 H         1 UNK         0.0837 
     73 H73       -80.4021   27.5512  -72.6557 H         1 UNK         0.0837 
     74 H74       -78.3534   26.1067  -69.1888 H         1 UNK         0.0685 
     75 H75       -78.1454   25.4988  -70.8065 H         1 UNK         0.0685 
     76 H76       -79.1729   28.7858  -71.4890 H         1 UNK         0.1434 
     77 H77       -75.3217   30.5878  -71.3860 H         1 UNK         0.1329 
     78 H78       -75.8770   26.6700  -69.7320 H         1 UNK         0.1335 
     79 H79       -73.7866   27.7397  -69.4415 H         1 UNK         0.0680 
     80 H80       -73.7336   29.4776  -69.4961 H         1 UNK         0.0680 
     81 H81       -72.9502   30.8536  -71.1824 H         1 UNK         0.1032 
     82 H82       -71.4804   30.3964  -71.9797 H         1 UNK         0.1032 
     83 H83       -74.2297   30.3454  -73.3177 H         1 UNK         0.0461 
     84 H84       -73.0747   33.5988  -75.0079 H         1 UNK         0.3453 
     85 H85       -72.9641   31.9660  -75.6201 H         1 UNK         0.3453 
     86 H86       -73.3735   29.2612  -74.9615 H         1 UNK         0.2984 
     87 H87       -71.8277   29.1226  -76.9150 H         1 UNK         0.0554 
     88 H88       -69.4546   29.8147  -76.9807 H         1 UNK         0.0847 
     89 H89       -69.6094   28.1437  -77.4991 H         1 UNK         0.0847 
     90 H90       -69.0024   28.5182  -75.8867 H         1 UNK         0.0847 
     91 H91       -72.3609   27.0616  -76.3410 H         1 UNK         0.3141 
     92 H92       -71.0143   24.5010  -74.6653 H         1 UNK         0.0743 
     93 H93       -71.6525   25.2891  -72.4236 H         1 UNK         0.0784 
     94 H94       -73.1653   25.9358  -73.0326 H         1 UNK         0.0784 
     95 H95       -72.8868   24.1954  -73.0305 H         1 UNK         0.0784 
     96 H96       -73.7853   25.2153  -75.3476 H         1 UNK         0.3213 
     97 H97       -73.3516   24.1076  -78.7552 H         1 UNK         0.0855 
     98 H98       -74.9107   22.9104  -76.4106 H         1 UNK         0.0814 
     99 H99       -73.8540   22.0433  -77.5099 H         1 UNK         0.0814 
    100 H100      -75.3491   22.7441  -78.1103 H         1 UNK         0.0814 
    101 H101      -75.6728   25.1282  -77.5493 H         1 UNK         0.3105 
    102 H102      -75.1140   28.5646  -78.4601 H         1 UNK         0.0547 
    103 H103      -77.2437   28.0261  -79.6011 H         1 UNK         0.0837 
    104 H104      -75.8969   27.2641  -80.4297 H         1 UNK         0.0837 
    105 H105      -76.9504   26.2992  -79.4074 H         1 UNK         0.0837 
    106 H106      -77.1827   27.0589  -77.0552 H         1 UNK         0.3020 
    107 H107      -76.1725   28.1440  -73.8159 H         1 UNK         0.1245 
    108 H108      -78.7088   28.8003  -73.9354 H         1 UNK         0.0781 
    109 H109      -78.4347   29.1797  -75.6021 H         1 UNK         0.0781 
    110 H110      -78.9111   30.9609  -72.3742 H         1 UNK         0.0836 
    111 H111      -77.4574   31.8628  -72.0244 H         1 UNK         0.0836 
    112 H112      -78.3452   26.5274  -74.7124 H         1 UNK         0.3022 
    113 H113      -76.5283   23.4941  -74.9642 H         1 UNK         0.0747 
    114 H114      -77.8223   22.5785  -73.1501 H         1 UNK         0.0793 
    115 H115      -76.6855   23.7265  -72.4621 H         1 UNK         0.0793 
    116 H116      -78.3791   24.1622  -72.6413 H         1 UNK         0.0793 
    117 H117      -79.3093   23.8092  -74.8922 H         1 UNK         0.3047 
    118 H118      -79.6690   24.5517  -78.3961 H         1 UNK         0.0822 
    119 H119      -78.9329   22.1691  -78.3440 H         1 UNK         0.0807 
    120 H120      -80.6819   22.2886  -78.4518 H         1 UNK         0.0807 
    121 H121      -79.9194   21.8792  -76.9157 H         1 UNK         0.0807 
    122 H122      -81.0126   24.1226  -75.7552 H         1 UNK         0.2946 
    123 H123      -83.5012   26.4159  -76.6391 H         1 UNK         0.1144 
    124 H124      -85.2416   24.7095  -76.1392 H         1 UNK         0.0793 
    125 H125      -84.0881   23.4088  -76.4430 H         1 UNK         0.0793 
    126 H126      -84.5996   24.4629  -77.7536 H         1 UNK         0.0793 
    127 H127      -83.3258   24.6132  -74.4202 H         1 UNK         0.2896 
@<TRIPOS>BOND
     1    1    2 1    
     2    1   67 1    
     3    1   68 1    
     4    1   69 1    
     5    2    3 2    
     6    2    4 am   BACKBONE|DICT|INTERRES
     7    4    5 1    
     8    4   70 1    
     9    5    6 1    
    10    5   65 1    
    11    5   71 1    
    12    6    7 1    
    13    6   72 1    
    14    6   73 1    
    15    7    8 1    
    16    8    9 1    
    17    8   74 1    
    18    8   75 1    
    19    9   10 ar   
    20    9   14 ar   
    21   10   11 ar   
    22   10   76 1    
    23   11   12 ar   
    24   11   48 1    
    25   12   13 ar   
    26   12   77 1    
    27   13   14 ar   
    28   13   15 1    
    29   14   78 1    
    30   15   16 1    
    31   15   79 1    
    32   15   80 1    
    33   16   17 1    
    34   17   18 1    
    35   17   81 1    
    36   17   82 1    
    37   18   19 1    
    38   18   22 1    
    39   18   83 1    
    40   19   20 am   BACKBONE|DICT|INTERRES
    41   19   21 2    
    42   20   84 1    
    43   20   85 1    
    44   22   23 am   BACKBONE|DICT|INTERRES
    45   22   86 1    
    46   23   24 2    
    47   23   25 1    
    48   25   26 1    
    49   25   27 1    
    50   25   87 1    
    51   26   88 1    
    52   26   89 1    
    53   26   90 1    
    54   27   28 am   BACKBONE|DICT|INTERRES
    55   27   91 1    
    56   28   29 2    
    57   28   30 1    
    58   30   31 1    
    59   30   32 1    
    60   30   92 1    
    61   31   93 1    
    62   31   94 1    
    63   31   95 1    
    64   32   33 am   BACKBONE|DICT|INTERRES
    65   32   96 1    
    66   33   34 2    
    67   33   35 1    
    68   35   36 1    
    69   35   37 1    
    70   35   97 1    
    71   36   98 1    
    72   36   99 1    
    73   36  100 1    
    74   37   38 am   BACKBONE|DICT|INTERRES
    75   37  101 1    
    76   38   39 2    
    77   38   40 1    
    78   40   41 1    
    79   40   42 1    
    80   40  102 1    
    81   41  103 1    
    82   41  104 1    
    83   41  105 1    
    84   42   43 am   BACKBONE|DICT|INTERRES
    85   42  106 1    
    86   43   44 2    
    87   43   45 1    
    88   45   46 1    
    89   45   49 1    
    90   45  107 1    
    91   46   47 1    
    92   46  108 1    
    93   46  109 1    
    94   47   48 1    
    95   48  110 1    
    96   48  111 1    
    97   49   50 am   BACKBONE|DICT|INTERRES
    98   49  112 1    
    99   50   51 2    
   100   50   52 1    
   101   52   53 1    
   102   52   54 1    
   103   52  113 1    
   104   53  114 1    
   105   53  115 1    
   106   53  116 1    
   107   54   55 am   BACKBONE|DICT|INTERRES
   108   54  117 1    
   109   55   56 2    
   110   55   57 1    
   111   57   58 1    
   112   57   59 1    
   113   57  118 1    
   114   58  119 1    
   115   58  120 1    
   116   58  121 1    
   117   59   60 am   BACKBONE|DICT|INTERRES
   118   59  122 1    
   119   60   61 2    
   120   60   62 1    
   121   62   63 1    
   122   62   64 1    
   123   62  123 1    
   124   63  124 1    
   125   63  125 1    
   126   63  126 1    
   127   64   65 am   BACKBONE|DICT|INTERRES
   128   64  127 1    
   129   65   66 2    
@<TRIPOS>SUBSTRUCTURE
     1 UNK         1 GROUP             0       ****    0 ROOT    
