@<TRIPOS>MOLECULE
3R135
127   129    1
SMALL
USER_CHARGES


@<TRIPOS>ATOM
      1 CA        -76.6952   29.6351  -75.9158 C.3       0 UNK        -0.1998 
      2 C         -77.6873   28.7784  -75.1497 C.2       0 UNK         0.4909 
      3 O         -77.3533   27.6667  -74.7415 O.2       0 UNK        -0.5240 
      4 N         -78.9109   29.2873  -74.9579 N.am      1 UNK        -0.4739 
      5 CA        -79.9877   28.6526  -74.1899 C.3       1 UNK         0.0864 
      6 C6        -81.0255   29.6881  -73.6717 C.3       11 UNK        -0.0881 
      7 S7        -80.2955   31.1135  -72.7934 S.3       11 UNK        -0.2682 
      8 C8        -80.3264   30.5563  -71.0602 C.3       11 UNK         0.0289 
      9 C9        -79.2460   29.5215  -70.7858 C.ar      11 UNK        -0.0687 
     10 C10       -79.5850   28.1886  -70.5318 C.ar      11 UNK        -0.0823 
     11 C11       -78.5874   27.2364  -70.3002 C.ar      11 UNK        -0.0830 
     12 C12       -77.2449   27.6324  -70.3013 C.ar      11 UNK        -0.1021 
     13 C13       -76.8946   28.9597  -70.5626 C.ar      11 UNK        -0.0753 
     14 C14       -77.9001   29.9009  -70.7963 C.ar      11 UNK        -0.0933 
     15 C15       -75.4322   29.3764  -70.6044 C.3       11 UNK         0.0166 
     16 S16       -74.7564   29.2262  -72.2872 S.3       11 UNK        -0.2615 
     17 C17       -73.0763   29.9036  -72.0518 C.3       11 UNK        -0.0865 
     18 CA        -72.9668   31.3915  -72.4982 C.3       10 UNK         0.0862 
     19 C         -71.6420   32.0730  -72.0325 C.2       10 UNK         0.5551 
     20 N         -71.1193   33.0566  -72.7548 N.am      10 UNK        -0.7319 
     21 O         -71.0969   31.7349  -70.9844 O.2       10 UNK        -0.5018 
     22 N         -73.3064   31.5859  -73.9219 N.am      10 UNK        -0.4509 
     23 C         -72.6035   31.1481  -74.9757 C.2       10 UNK         0.4899 
     24 O         -71.5105   30.5819  -74.9009 O.2       10 UNK        -0.4839 
     25 CA        -73.2213   31.4491  -76.3553 C.3       9 UNK         0.0222 
     26 CB        -72.7534   32.8258  -76.8564 C.3       9 UNK        -0.1966 
     27 N         -72.9226   30.4427  -77.3816 N.am      9 UNK        -0.4218 
     28 C         -73.1813   29.1303  -77.2944 C.2       9 UNK         0.5020 
     29 O         -73.6663   28.5846  -76.3020 O.2       9 UNK        -0.5274 
     30 CA        -72.8243   28.2844  -78.5293 C.3       8 UNK         0.0270 
     31 CB        -71.3177   27.9772  -78.5586 C.3       8 UNK        -0.1976 
     32 N         -73.5588   27.0200  -78.5190 N.am      8 UNK        -0.4313 
     33 C         -74.8552   26.8650  -78.8105 C.2       8 UNK         0.5041 
     34 O         -75.5586   27.7489  -79.3019 O.2       8 UNK        -0.5577 
     35 CA        -75.4777   25.4938  -78.4821 C.3       7 UNK         0.0284 
     36 CB        -74.9575   24.4007  -79.4416 C.3       7 UNK        -0.1958 
     37 N         -75.3273   25.1165  -77.0654 N.am      7 UNK        -0.4454 
     38 C         -74.1932   24.8237  -76.4078 C.2       7 UNK         0.5089 
     39 O         -73.0960   24.7242  -76.9605 O.2       7 UNK        -0.5125 
     40 CA        -74.2475   24.6531  -74.8833 C.3       6 UNK         0.0408 
     41 CB        -73.7639   25.9479  -74.1984 C.3       6 UNK        -0.1791 
     42 N         -75.5643   24.2755  -74.3634 N.am      6 UNK        -0.4762 
     43 C         -75.7532   23.7477  -73.1460 C.2       6 UNK         0.5007 
     44 O         -74.8397   23.4164  -72.3883 O.2       6 UNK        -0.5032 
     45 CA        -77.2097   23.5859  -72.6844 C.3       5 UNK         0.0783 
     46 C46       -77.8846   24.9719  -72.5491 C.3       11 UNK        -0.0857 
     47 S47       -79.4406   24.9275  -71.6031 S.3       11 UNK        -0.2512 
     48 C48       -78.9602   25.7779  -70.0612 C.3       11 UNK         0.0225 
     49 N         -77.9232   22.6909  -73.5951 N.am      5 UNK        -0.4615 
     50 C         -77.8336   21.3538  -73.5657 C.2       4 UNK         0.5053 
     51 O         -77.1998   20.7305  -72.7140 O.2       4 UNK        -0.5105 
     52 CA        -78.5809   20.5685  -74.6598 C.3       4 UNK         0.0263 
     53 CB        -79.9424   20.0857  -74.1336 C.3       4 UNK        -0.1981 
     54 N         -78.7895   21.3442  -75.8837 N.am      4 UNK        -0.4224 
     55 C         -77.8303   21.6605  -76.7663 C.2       3 UNK         0.4895 
     56 O         -76.6712   21.2521  -76.7004 O.2       3 UNK        -0.5091 
     57 CA        -78.2295   22.6325  -77.8923 C.3       3 UNK         0.0250 
     58 CB        -78.7081   21.8648  -79.1342 C.3       3 UNK        -0.1996 
     59 N         -79.2552   23.5975  -77.4795 N.am      3 UNK        -0.4254 
     60 C         -79.0662   24.5311  -76.5379 C.2       2 UNK         0.5004 
     61 O         -77.9811   24.7268  -75.9802 O.2       2 UNK        -0.5226 
     62 CA        -80.3100   25.3045  -76.0896 C.3       2 UNK         0.0269 
     63 CB        -81.2134   24.4038  -75.2210 C.3       2 UNK        -0.1926 
     64 N         -79.8925   26.4790  -75.3302 N.am      2 UNK        -0.4687 
     65 C         -80.6611   27.5201  -74.9991 C.2       1 UNK         0.5165 
     66 O         -81.8451   27.6141  -75.3302 O.2       1 UNK        -0.5079 
     67 H67       -77.1228   30.5892  -76.2232 H         1 UNK         0.0900 
     68 H68       -76.3558   29.1075  -76.8071 H         1 UNK         0.0900 
     69 H69       -75.8289   29.8346  -75.2859 H         1 UNK         0.0900 
     70 H70       -79.1299   30.2023  -75.3245 H         1 UNK         0.2959 
     71 H71       -79.5346   28.1760  -73.3184 H         1 UNK         0.1079 
     72 H72       -81.7525   29.2018  -73.0185 H         1 UNK         0.0837 
     73 H73       -81.6004   30.0960  -74.5054 H         1 UNK         0.0837 
     74 H74       -80.1637   31.4187  -70.4121 H         1 UNK         0.0685 
     75 H75       -81.3170   30.1715  -70.8128 H         1 UNK         0.0685 
     76 H76       -80.6231   27.8851  -70.5330 H         1 UNK         0.1434 
     77 H77       -76.4667   26.9025  -70.1242 H         1 UNK         0.1329 
     78 H78       -77.6356   30.9283  -71.0062 H         1 UNK         0.1335 
     79 H79       -75.3276   30.4073  -70.2621 H         1 UNK         0.0680 
     80 H80       -74.8460   28.7603  -69.9208 H         1 UNK         0.0680 
     81 H81       -72.3724   29.2867  -72.6127 H         1 UNK         0.1032 
     82 H82       -72.8007   29.7870  -71.0023 H         1 UNK         0.1032 
     83 H83       -73.7378   31.9363  -71.9522 H         1 UNK         0.0461 
     84 H84       -71.5591   33.3471  -73.6128 H         1 UNK         0.3453 
     85 H85       -70.2702   33.5018  -72.4440 H         1 UNK         0.3453 
     86 H86       -74.1755   32.0711  -74.0906 H         1 UNK         0.2984 
     87 H87       -74.3067   31.4768  -76.2455 H         1 UNK         0.0554 
     88 H88       -73.2370   33.0945  -77.7959 H         1 UNK         0.0847 
     89 H89       -71.6741   32.8511  -77.0137 H         1 UNK         0.0847 
     90 H90       -72.9952   33.6099  -76.1376 H         1 UNK         0.0847 
     91 H91       -72.4874   30.7857  -78.2255 H         1 UNK         0.3141 
     92 H92       -73.0951   28.8406  -79.4293 H         1 UNK         0.0743 
     93 H93       -71.0033   27.4262  -77.6708 H         1 UNK         0.0784 
     94 H94       -71.0509   27.3835  -79.4332 H         1 UNK         0.0784 
     95 H95       -70.7282   28.8941  -78.5984 H         1 UNK         0.0784 
     96 H96       -73.1143   26.2400  -78.0399 H         1 UNK         0.3213 
     97 H97       -76.5531   25.5865  -78.6434 H         1 UNK         0.0855 
     98 H98       -73.8695   24.3323  -79.4395 H         1 UNK         0.0814 
     99 H99       -75.2606   24.6154  -80.4670 H         1 UNK         0.0814 
    100 H100      -75.3445   23.4151  -79.1881 H         1 UNK         0.0814 
    101 H101      -76.1872   25.1925  -76.5306 H         1 UNK         0.3105 
    102 H102      -73.5441   23.8526  -74.6442 H         1 UNK         0.0547 
    103 H103      -72.8101   26.2822  -74.6090 H         1 UNK         0.0837 
    104 H104      -74.4773   26.7617  -74.3399 H         1 UNK         0.0837 
    105 H105      -73.6212   25.8135  -73.1266 H         1 UNK         0.0837 
    106 H106      -76.3787   24.4900  -74.9317 H         1 UNK         0.3020 
    107 H107      -77.1811   23.1282  -71.6925 H         1 UNK         0.1245 
    108 H108      -78.1020   25.3967  -73.5260 H         1 UNK         0.0781 
    109 H109      -77.2001   25.6792  -72.0838 H         1 UNK         0.0781 
    110 H110      -78.1345   25.2382  -69.5948 H         1 UNK         0.0836 
    111 H111      -79.7916   25.7277  -69.3567 H         1 UNK         0.0836 
    112 H112      -78.4209   23.1328  -74.3530 H         1 UNK         0.3022 
    113 H113      -77.9777   19.6922  -74.9074 H         1 UNK         0.0747 
    114 H114      -80.4582   19.4704  -74.8711 H         1 UNK         0.0793 
    115 H115      -79.8197   19.4774  -73.2362 H         1 UNK         0.0793 
    116 H116      -80.5955   20.9201  -73.8740 H         1 UNK         0.0793 
    117 H117      -79.7194   21.7029  -76.0405 H         1 UNK         0.3047 
    118 H118      -77.3379   23.1965  -78.1620 H         1 UNK         0.0822 
    119 H119      -78.9107   22.5412  -79.9648 H         1 UNK         0.0807 
    120 H120      -79.6162   21.2947  -78.9343 H         1 UNK         0.0807 
    121 H121      -77.9478   21.1591  -79.4723 H         1 UNK         0.0807 
    122 H122      -80.1692   23.4967  -77.8984 H         1 UNK         0.2946 
    123 H123      -80.8532   25.6341  -76.9780 H         1 UNK         0.1144 
    124 H124      -82.1178   24.9251  -74.9077 H         1 UNK         0.0793 
    125 H125      -80.6994   24.0665  -74.3201 H         1 UNK         0.0793 
    126 H126      -81.5367   23.5167  -75.7665 H         1 UNK         0.0793 
    127 H127      -78.8995   26.5194  -75.1033 H         1 UNK         0.2896 
@<TRIPOS>BOND
     1    1    2 1    
     2    1   67 1    
     3    1   68 1    
     4    1   69 1    
     5    2    3 2    
     6    2    4 am   BACKBONE|DICT|INTERRES
     7    4    5 1    
     8    4   70 1    
     9    5    6 1    
    10    5   65 1    
    11    5   71 1    
    12    6    7 1    
    13    6   72 1    
    14    6   73 1    
    15    7    8 1    
    16    8    9 1    
    17    8   74 1    
    18    8   75 1    
    19    9   10 ar   
    20    9   14 ar   
    21   10   11 ar   
    22   10   76 1    
    23   11   12 ar   
    24   11   48 1    
    25   12   13 ar   
    26   12   77 1    
    27   13   14 ar   
    28   13   15 1    
    29   14   78 1    
    30   15   16 1    
    31   15   79 1    
    32   15   80 1    
    33   16   17 1    
    34   17   18 1    
    35   17   81 1    
    36   17   82 1    
    37   18   19 1    
    38   18   22 1    
    39   18   83 1    
    40   19   20 am   BACKBONE|DICT|INTERRES
    41   19   21 2    
    42   20   84 1    
    43   20   85 1    
    44   22   23 am   BACKBONE|DICT|INTERRES
    45   22   86 1    
    46   23   24 2    
    47   23   25 1    
    48   25   26 1    
    49   25   27 1    
    50   25   87 1    
    51   26   88 1    
    52   26   89 1    
    53   26   90 1    
    54   27   28 am   BACKBONE|DICT|INTERRES
    55   27   91 1    
    56   28   29 2    
    57   28   30 1    
    58   30   31 1    
    59   30   32 1    
    60   30   92 1    
    61   31   93 1    
    62   31   94 1    
    63   31   95 1    
    64   32   33 am   BACKBONE|DICT|INTERRES
    65   32   96 1    
    66   33   34 2    
    67   33   35 1    
    68   35   36 1    
    69   35   37 1    
    70   35   97 1    
    71   36   98 1    
    72   36   99 1    
    73   36  100 1    
    74   37   38 am   BACKBONE|DICT|INTERRES
    75   37  101 1    
    76   38   39 2    
    77   38   40 1    
    78   40   41 1    
    79   40   42 1    
    80   40  102 1    
    81   41  103 1    
    82   41  104 1    
    83   41  105 1    
    84   42   43 am   BACKBONE|DICT|INTERRES
    85   42  106 1    
    86   43   44 2    
    87   43   45 1    
    88   45   46 1    
    89   45   49 1    
    90   45  107 1    
    91   46   47 1    
    92   46  108 1    
    93   46  109 1    
    94   47   48 1    
    95   48  110 1    
    96   48  111 1    
    97   49   50 am   BACKBONE|DICT|INTERRES
    98   49  112 1    
    99   50   51 2    
   100   50   52 1    
   101   52   53 1    
   102   52   54 1    
   103   52  113 1    
   104   53  114 1    
   105   53  115 1    
   106   53  116 1    
   107   54   55 am   BACKBONE|DICT|INTERRES
   108   54  117 1    
   109   55   56 2    
   110   55   57 1    
   111   57   58 1    
   112   57   59 1    
   113   57  118 1    
   114   58  119 1    
   115   58  120 1    
   116   58  121 1    
   117   59   60 am   BACKBONE|DICT|INTERRES
   118   59  122 1    
   119   60   61 2    
   120   60   62 1    
   121   62   63 1    
   122   62   64 1    
   123   62  123 1    
   124   63  124 1    
   125   63  125 1    
   126   63  126 1    
   127   64   65 am   BACKBONE|DICT|INTERRES
   128   64  127 1    
   129   65   66 2    
@<TRIPOS>SUBSTRUCTURE
     1 UNK         1 GROUP             0       ****    0 ROOT    
