@<TRIPOS>MOLECULE
3R135
127   129    1
SMALL
USER_CHARGES


@<TRIPOS>ATOM
      1 CA        -81.7594   24.9954  -71.5179 C.3       0 UNK        -0.1998 
      2 C         -82.3525   25.8139  -72.6545 C.2       0 UNK         0.4909 
      3 O         -83.4991   25.5872  -73.0436 O.2       0 UNK        -0.5240 
      4 N         -81.5802   26.7628  -73.1971 N.am      1 UNK        -0.4739 
      5 CA        -81.9833   27.6530  -74.2916 C.3       1 UNK         0.0864 
      6 C6        -81.2610   29.0228  -74.2168 C.3       11 UNK        -0.0881 
      7 S7        -81.7391   29.9491  -72.7181 S.3       11 UNK        -0.2682 
      8 C8        -80.2447   30.9526  -72.4028 C.3       11 UNK         0.0289 
      9 C9        -79.0162   30.2057  -71.8742 C.ar      11 UNK        -0.0687 
     10 C10       -79.0445   28.8617  -71.4745 C.ar      11 UNK        -0.0823 
     11 C11       -77.8878   28.2262  -71.0117 C.ar      11 UNK        -0.0830 
     12 C12       -76.6977   28.9508  -70.9173 C.ar      11 UNK        -0.1021 
     13 C13       -76.6543   30.2927  -71.2991 C.ar      11 UNK        -0.0753 
     14 C14       -77.8128   30.9117  -71.7760 C.ar      11 UNK        -0.0933 
     15 C15       -75.3508   31.0666  -71.2058 C.3       11 UNK         0.0166 
     16 S16       -74.5789   31.2091  -72.8434 S.3       11 UNK        -0.2615 
     17 C17       -72.8158   31.3935  -72.3994 C.3       11 UNK        -0.0865 
     18 CA        -71.9824   30.1068  -72.6651 C.3       10 UNK         0.0862 
     19 C         -72.1769   29.0237  -71.5682 C.2       10 UNK         0.5551 
     20 N         -72.5994   27.8070  -71.8849 N.am      10 UNK        -0.7319 
     21 O         -71.9071   29.2870  -70.3990 O.2       10 UNK        -0.5018 
     22 N         -72.1263   29.6264  -74.0496 N.am      10 UNK        -0.4509 
     23 C         -71.5351   30.2025  -75.1027 C.2       10 UNK         0.4899 
     24 O         -70.7278   31.1300  -75.0115 O.2       10 UNK        -0.4839 
     25 CA        -71.9369   29.6701  -76.4893 C.3       9 UNK         0.0222 
     26 CB        -71.1159   30.2864  -77.6424 C.3       9 UNK        -0.1966 
     27 N         -71.9278   28.2077  -76.5655 N.am      9 UNK        -0.4218 
     28 C         -70.8836   27.3796  -76.4078 C.2       9 UNK         0.5020 
     29 O         -69.7386   27.7554  -76.1524 O.2       9 UNK        -0.5274 
     30 CA        -71.1505   25.8678  -76.5552 C.3       8 UNK         0.0270 
     31 CB        -71.0186   25.1690  -75.1913 C.3       8 UNK        -0.1976 
     32 N         -72.4639   25.5511  -77.1245 N.am      8 UNK        -0.4313 
     33 C         -72.8310   25.7461  -78.3989 C.2       8 UNK         0.5041 
     34 O         -72.0637   26.1266  -79.2835 O.2       8 UNK        -0.5577 
     35 CA        -74.3211   25.5342  -78.7249 C.3       7 UNK         0.0284 
     36 CB        -74.6137   24.0534  -79.0125 C.3       7 UNK        -0.1958 
     37 N         -75.2034   26.0259  -77.6584 N.am      7 UNK        -0.4454 
     38 C         -75.3279   27.3185  -77.3183 C.2       7 UNK         0.5089 
     39 O         -74.7533   28.2356  -77.9027 O.2       7 UNK        -0.5125 
     40 CA        -76.1920   27.6450  -76.0916 C.3       6 UNK         0.0408 
     41 CB        -77.6620   27.8230  -76.4891 C.3       6 UNK        -0.1791 
     42 N         -76.0808   26.6176  -75.0581 N.am      6 UNK        -0.4762 
     43 C         -75.0285   26.4908  -74.2376 C.2       6 UNK         0.5007 
     44 O         -74.0546   27.2494  -74.2500 O.2       6 UNK        -0.5032 
     45 CA        -75.0332   25.2751  -73.2845 C.3       5 UNK         0.0783 
     46 C46       -75.7250   25.5856  -71.9336 C.3       11 UNK        -0.0857 
     47 S47       -77.5526   25.6643  -72.0112 S.3       11 UNK        -0.2512 
     48 C48       -77.9306   26.7604  -70.6061 C.3       11 UNK         0.0225 
     49 N         -75.5683   24.0621  -73.9105 N.am      5 UNK        -0.4615 
     50 C         -75.0363   23.4546  -74.9782 C.2       4 UNK         0.5053 
     51 O         -73.9985   23.8274  -75.5207 O.2       4 UNK        -0.5105 
     52 CA        -75.7956   22.2556  -75.5715 C.3       4 UNK         0.0263 
     53 CB        -75.2040   20.9396  -75.0430 C.3       4 UNK        -0.1981 
     54 N         -77.2439   22.2639  -75.3417 N.am      4 UNK        -0.4224 
     55 C         -78.0939   23.2305  -75.7153 C.2       3 UNK         0.4895 
     56 O         -77.7501   24.2903  -76.2479 O.2       3 UNK        -0.5091 
     57 CA        -79.5704   22.9639  -75.4054 C.3       3 UNK         0.0250 
     58 CB        -79.8399   23.0199  -73.8900 C.3       3 UNK        -0.1996 
     59 N         -80.4103   23.9487  -76.0800 N.am      3 UNK        -0.4254 
     60 C         -81.6746   23.7464  -76.4669 C.2       2 UNK         0.5004 
     61 O         -82.2631   22.6698  -76.3464 O.2       2 UNK        -0.5226 
     62 CA        -82.4205   24.9763  -77.0101 C.3       2 UNK         0.0269 
     63 CB        -83.8039   24.6287  -77.5918 C.3       2 UNK        -0.1926 
     64 N         -82.5927   25.9286  -75.9136 N.am      2 UNK        -0.4687 
     65 C         -81.7522   26.9302  -75.6317 C.2       1 UNK         0.5165 
     66 O         -80.7980   27.2334  -76.3477 O.2       1 UNK        -0.5079 
     67 H67       -82.2253   25.2750  -70.5736 H         1 UNK         0.0900 
     68 H68       -80.6842   25.1451  -71.4261 H         1 UNK         0.0900 
     69 H69       -81.9390   23.9337  -71.6836 H         1 UNK         0.0900 
     70 H70       -80.6288   26.8717  -72.8794 H         1 UNK         0.2959 
     71 H71       -83.0561   27.8490  -74.2196 H         1 UNK         0.1079 
     72 H72       -80.1780   28.8897  -74.2385 H         1 UNK         0.0837 
     73 H73       -81.5117   29.6383  -75.0829 H         1 UNK         0.0837 
     74 H74       -80.5086   31.7246  -71.6788 H         1 UNK         0.0685 
     75 H75       -79.9806   31.4739  -73.3244 H         1 UNK         0.0685 
     76 H76       -79.9641   28.2995  -71.5171 H         1 UNK         0.1434 
     77 H77       -75.8009   28.4742  -70.5477 H         1 UNK         0.1329 
     78 H78       -77.7728   31.9498  -72.0776 H         1 UNK         0.1335 
     79 H79       -75.5309   32.0632  -70.8001 H         1 UNK         0.0680 
     80 H80       -74.6697   30.5679  -70.5143 H         1 UNK         0.0680 
     81 H81       -72.7147   31.7239  -71.3638 H         1 UNK         0.1032 
     82 H82       -72.4132   32.2125  -72.9969 H         1 UNK         0.1032 
     83 H83       -70.9335   30.3855  -72.5447 H         1 UNK         0.0461 
     84 H84       -72.6797   27.1229  -71.1509 H         1 UNK         0.3453 
     85 H85       -72.9112   27.5854  -72.8230 H         1 UNK         0.3453 
     86 H86       -72.7895   28.8738  -74.1979 H         1 UNK         0.2984 
     87 H87       -72.9752   29.9714  -76.6341 H         1 UNK         0.0554 
     88 H88       -71.4496   29.9111  -78.6099 H         1 UNK         0.0847 
     89 H89       -70.0519   30.0680  -77.5462 H         1 UNK         0.0847 
     90 H90       -71.2238   31.3715  -77.6621 H         1 UNK         0.0847 
     91 H91       -72.8243   27.7886  -76.7744 H         1 UNK         0.3141 
     92 H92       -70.3859   25.4662  -77.2233 H         1 UNK         0.0743 
     93 H93       -71.7615   25.5323  -74.4804 H         1 UNK         0.0784 
     94 H94       -71.1438   24.0900  -75.2842 H         1 UNK         0.0784 
     95 H95       -70.0349   25.3440  -74.7534 H         1 UNK         0.0784 
     96 H96       -73.1385   25.1272  -76.4891 H         1 UNK         0.3213 
     97 H97       -74.5481   26.1051  -79.6281 H         1 UNK         0.0855 
     98 H98       -74.3067   23.4116  -78.1876 H         1 UNK         0.0814 
     99 H99       -74.0692   23.7192  -79.8966 H         1 UNK         0.0814 
    100 H100      -75.6739   23.8822  -79.2006 H         1 UNK         0.0814 
    101 H101      -75.7259   25.3397  -77.1296 H         1 UNK         0.3105 
    102 H102      -75.8411   28.5926  -75.6759 H         1 UNK         0.0547 
    103 H103      -77.7739   28.6136  -77.2319 H         1 UNK         0.0837 
    104 H104      -78.0813   26.9122  -76.9176 H         1 UNK         0.0837 
    105 H105      -78.2707   28.0996  -75.6286 H         1 UNK         0.0837 
    106 H106      -76.8139   25.9196  -75.0240 H         1 UNK         0.3020 
    107 H107      -73.9826   25.0697  -73.0658 H         1 UNK         0.1245 
    108 H108      -75.3283   26.5108  -71.5169 H         1 UNK         0.0781 
    109 H109      -75.4651   24.8100  -71.2117 H         1 UNK         0.0781 
    110 H110      -77.2375   26.5679  -69.7856 H         1 UNK         0.0836 
    111 H111      -78.9215   26.5127  -70.2230 H         1 UNK         0.0836 
    112 H112      -76.4314   23.7073  -73.5261 H         1 UNK         0.3022 
    113 H113      -75.6470   22.2825  -76.6517 H         1 UNK         0.0747 
    114 H114      -75.6504   20.0758  -75.5360 H         1 UNK         0.0793 
    115 H115      -74.1293   20.8932  -75.2260 H         1 UNK         0.0793 
    116 H116      -75.3563   20.8309  -73.9683 H         1 UNK         0.0793 
    117 H117      -77.6248   21.4396  -74.8993 H         1 UNK         0.3047 
    118 H118      -79.8099   21.9668  -75.7819 H         1 UNK         0.0822 
    119 H119      -79.2275   22.3026  -73.3428 H         1 UNK         0.0807 
    120 H120      -80.8807   22.7849  -73.6672 H         1 UNK         0.0807 
    121 H121      -79.6271   24.0093  -73.4853 H         1 UNK         0.0807 
    122 H122      -79.9673   24.8438  -76.2520 H         1 UNK         0.2946 
    123 H123      -81.8158   25.4110  -77.8098 H         1 UNK         0.1144 
    124 H124      -83.7146   23.9085  -78.4061 H         1 UNK         0.0793 
    125 H125      -84.2959   25.5139  -77.9952 H         1 UNK         0.0793 
    126 H126      -84.4637   24.1933  -76.8401 H         1 UNK         0.0793 
    127 H127      -83.2839   25.6886  -75.2113 H         1 UNK         0.2896 
@<TRIPOS>BOND
     1    1    2 1    
     2    1   67 1    
     3    1   68 1    
     4    1   69 1    
     5    2    3 2    
     6    2    4 am   BACKBONE|DICT|INTERRES
     7    4    5 1    
     8    4   70 1    
     9    5    6 1    
    10    5   65 1    
    11    5   71 1    
    12    6    7 1    
    13    6   72 1    
    14    6   73 1    
    15    7    8 1    
    16    8    9 1    
    17    8   74 1    
    18    8   75 1    
    19    9   10 ar   
    20    9   14 ar   
    21   10   11 ar   
    22   10   76 1    
    23   11   12 ar   
    24   11   48 1    
    25   12   13 ar   
    26   12   77 1    
    27   13   14 ar   
    28   13   15 1    
    29   14   78 1    
    30   15   16 1    
    31   15   79 1    
    32   15   80 1    
    33   16   17 1    
    34   17   18 1    
    35   17   81 1    
    36   17   82 1    
    37   18   19 1    
    38   18   22 1    
    39   18   83 1    
    40   19   20 am   BACKBONE|DICT|INTERRES
    41   19   21 2    
    42   20   84 1    
    43   20   85 1    
    44   22   23 am   BACKBONE|DICT|INTERRES
    45   22   86 1    
    46   23   24 2    
    47   23   25 1    
    48   25   26 1    
    49   25   27 1    
    50   25   87 1    
    51   26   88 1    
    52   26   89 1    
    53   26   90 1    
    54   27   28 am   BACKBONE|DICT|INTERRES
    55   27   91 1    
    56   28   29 2    
    57   28   30 1    
    58   30   31 1    
    59   30   32 1    
    60   30   92 1    
    61   31   93 1    
    62   31   94 1    
    63   31   95 1    
    64   32   33 am   BACKBONE|DICT|INTERRES
    65   32   96 1    
    66   33   34 2    
    67   33   35 1    
    68   35   36 1    
    69   35   37 1    
    70   35   97 1    
    71   36   98 1    
    72   36   99 1    
    73   36  100 1    
    74   37   38 am   BACKBONE|DICT|INTERRES
    75   37  101 1    
    76   38   39 2    
    77   38   40 1    
    78   40   41 1    
    79   40   42 1    
    80   40  102 1    
    81   41  103 1    
    82   41  104 1    
    83   41  105 1    
    84   42   43 am   BACKBONE|DICT|INTERRES
    85   42  106 1    
    86   43   44 2    
    87   43   45 1    
    88   45   46 1    
    89   45   49 1    
    90   45  107 1    
    91   46   47 1    
    92   46  108 1    
    93   46  109 1    
    94   47   48 1    
    95   48  110 1    
    96   48  111 1    
    97   49   50 am   BACKBONE|DICT|INTERRES
    98   49  112 1    
    99   50   51 2    
   100   50   52 1    
   101   52   53 1    
   102   52   54 1    
   103   52  113 1    
   104   53  114 1    
   105   53  115 1    
   106   53  116 1    
   107   54   55 am   BACKBONE|DICT|INTERRES
   108   54  117 1    
   109   55   56 2    
   110   55   57 1    
   111   57   58 1    
   112   57   59 1    
   113   57  118 1    
   114   58  119 1    
   115   58  120 1    
   116   58  121 1    
   117   59   60 am   BACKBONE|DICT|INTERRES
   118   59  122 1    
   119   60   61 2    
   120   60   62 1    
   121   62   63 1    
   122   62   64 1    
   123   62  123 1    
   124   63  124 1    
   125   63  125 1    
   126   63  126 1    
   127   64   65 am   BACKBONE|DICT|INTERRES
   128   64  127 1    
   129   65   66 2    
@<TRIPOS>SUBSTRUCTURE
     1 UNK         1 GROUP             0       ****    0 ROOT    
