@<TRIPOS>MOLECULE
3R135
127   129    1
SMALL
USER_CHARGES


@<TRIPOS>ATOM
      1 CA        -78.7638   31.1349  -76.2688 C.3       0 UNK        -0.1998 
      2 C         -79.2335   30.4353  -75.0023 C.2       0 UNK         0.4909 
      3 O         -78.7844   30.7826  -73.9122 O.2       0 UNK        -0.5240 
      4 N         -80.1317   29.4567  -75.1438 N.am      1 UNK        -0.4739 
      5 CA        -80.6488   28.5883  -74.0878 C.3       1 UNK         0.0864 
      6 C6        -81.6866   29.3120  -73.1914 C.3       11 UNK        -0.0881 
      7 S7        -82.1516   28.3629  -71.7025 S.3       11 UNK        -0.2682 
      8 C8        -81.0709   29.0873  -70.4305 C.3       11 UNK         0.0289 
      9 C9        -79.6338   28.5947  -70.5382 C.ar      11 UNK        -0.0687 
     10 C10       -79.3094   27.2893  -70.1543 C.ar      11 UNK        -0.0823 
     11 C11       -77.9824   26.8480  -70.1779 C.ar      11 UNK        -0.0830 
     12 C12       -76.9779   27.7323  -70.5844 C.ar      11 UNK        -0.1021 
     13 C13       -77.2883   29.0314  -70.9948 C.ar      11 UNK        -0.0753 
     14 C14       -78.6202   29.4567  -70.9685 C.ar      11 UNK        -0.0933 
     15 C15       -76.1751   29.9937  -71.3897 C.3       11 UNK         0.0166 
     16 S16       -75.0885   29.3242  -72.6958 S.3       11 UNK        -0.2615 
     17 C17       -73.5403   30.2394  -72.3670 C.3       11 UNK        -0.0865 
     18 CA        -73.1088   31.1624  -73.5347 C.3       10 UNK         0.0862 
     19 C         -71.8999   32.0365  -73.0951 C.2       10 UNK         0.5551 
     20 N         -72.1406   33.2844  -72.7172 N.am      10 UNK        -0.7319 
     21 O         -70.7615   31.5755  -73.0442 O.2       10 UNK        -0.5018 
     22 N         -72.8474   30.3768  -74.7499 N.am      10 UNK        -0.4509 
     23 C         -72.4258   30.8471  -75.9317 C.2       10 UNK         0.4899 
     24 O         -72.2635   32.0439  -76.1746 O.2       10 UNK        -0.4839 
     25 CA        -72.1861   29.8135  -77.0510 C.3       9 UNK         0.0222 
     26 CB        -70.9998   30.1890  -77.9649 C.3       9 UNK        -0.1966 
     27 N         -72.0865   28.4257  -76.5758 N.am      9 UNK        -0.4218 
     28 C         -71.1056   27.8652  -75.8471 C.2       9 UNK         0.5020 
     29 O         -70.0932   28.4664  -75.4874 O.2       9 UNK        -0.5274 
     30 CA        -71.2800   26.3941  -75.4110 C.3       8 UNK         0.0270 
     31 CB        -71.4782   26.3120  -73.8875 C.3       8 UNK        -0.1976 
     32 N         -72.3937   25.7068  -76.0720 N.am      8 UNK        -0.4313 
     33 C         -72.3948   25.3096  -77.3547 C.2       8 UNK         0.5041 
     34 O         -71.4043   25.3714  -78.0837 O.2       8 UNK        -0.5577 
     35 CA        -73.7246   24.7949  -77.9467 C.3       7 UNK         0.0284 
     36 CB        -73.7361   23.2582  -77.9800 C.3       7 UNK        -0.1958 
     37 N         -74.9220   25.2630  -77.2416 N.am      7 UNK        -0.4454 
     38 C         -75.2569   26.5411  -77.0133 C.2       7 UNK         0.5089 
     39 O         -74.6448   27.4999  -77.4816 O.2       7 UNK        -0.5125 
     40 CA        -76.4211   26.8008  -76.0428 C.3       6 UNK         0.0408 
     41 CB        -77.6949   27.1464  -76.8264 C.3       6 UNK        -0.1791 
     42 N         -76.7023   25.6854  -75.1333 N.am      6 UNK        -0.4762 
     43 C         -75.8576   25.1424  -74.2421 C.2       6 UNK         0.5007 
     44 O         -74.6925   25.5125  -74.0934 O.2       6 UNK        -0.5032 
     45 CA        -76.3874   23.9292  -73.4544 C.3       5 UNK         0.0783 
     46 C46       -77.3158   24.3476  -72.2850 C.3       11 UNK        -0.0857 
     47 S47       -76.3861   24.6047  -70.7420 S.3       11 UNK        -0.2512 
     48 C48       -77.6404   25.4359  -69.7102 C.3       11 UNK         0.0225 
     49 N         -77.0702   23.0081  -74.3637 N.am      5 UNK        -0.4615 
     50 C         -76.4940   21.9760  -74.9909 C.2       4 UNK         0.5053 
     51 O         -75.3121   21.6635  -74.8487 O.2       4 UNK        -0.5105 
     52 CA        -77.3817   21.1382  -75.9306 C.3       4 UNK         0.0263 
     53 CB        -77.8898   19.8820  -75.2047 C.3       4 UNK        -0.1981 
     54 N         -78.5274   21.8746  -76.4735 N.am      4 UNK        -0.4224 
     55 C         -78.4333   22.8558  -77.3809 C.2       3 UNK         0.4895 
     56 O         -77.3696   23.2390  -77.8682 O.2       3 UNK        -0.5091 
     57 CA        -79.7444   23.5534  -77.7885 C.3       3 UNK         0.0250 
     58 CB        -80.4549   22.7521  -78.8915 C.3       3 UNK        -0.1996 
     59 N         -80.6932   23.8323  -76.6978 N.am      3 UNK        -0.4254 
     60 C         -80.3980   24.4482  -75.5444 C.2       2 UNK         0.5004 
     61 O         -79.2512   24.6789  -75.1615 O.2       2 UNK        -0.5226 
     62 CA        -81.5645   24.8887  -74.6480 C.3       2 UNK         0.0269 
     63 CB        -81.7728   23.8806  -73.5070 C.3       2 UNK        -0.1926 
     64 N         -81.2760   26.2081  -74.0768 N.am      2 UNK        -0.4687 
     65 C         -81.2166   27.3399  -74.7912 C.2       1 UNK         0.5165 
     66 O         -81.5691   27.4155  -75.9734 O.2       1 UNK        -0.5079 
     67 H67       -77.6866   31.0158  -76.3830 H         1 UNK         0.0900 
     68 H68       -78.9856   32.2002  -76.2133 H         1 UNK         0.0900 
     69 H69       -79.2460   30.7331  -77.1598 H         1 UNK         0.0900 
     70 H70       -80.4711   29.1952  -76.0627 H         1 UNK         0.2959 
     71 H71       -79.8000   28.2712  -73.4771 H         1 UNK         0.1079 
     72 H72       -82.5922   29.5337  -73.7591 H         1 UNK         0.0837 
     73 H73       -81.2972   30.2799  -72.8733 H         1 UNK         0.0837 
     74 H74       -81.1186   30.1762  -70.4825 H         1 UNK         0.0685 
     75 H75       -81.4629   28.8169  -69.4490 H         1 UNK         0.0685 
     76 H76       -80.0935   26.6253  -69.8160 H         1 UNK         0.1434 
     77 H77       -75.9449   27.4121  -70.5803 H         1 UNK         0.1329 
     78 H78       -78.8655   30.4682  -71.2622 H         1 UNK         0.1335 
     79 H79       -76.5834   30.9462  -71.7313 H         1 UNK         0.0680 
     80 H80       -75.5945   30.2053  -70.4912 H         1 UNK         0.0680 
     81 H81       -73.6531   30.8244  -71.4526 H         1 UNK         0.1032 
     82 H82       -72.7561   29.5107  -72.1512 H         1 UNK         0.1032 
     83 H83       -73.9419   31.8285  -73.7678 H         1 UNK         0.0461 
     84 H84       -71.3721   33.8609  -72.4116 H         1 UNK         0.3453 
     85 H85       -73.0727   33.6679  -72.7464 H         1 UNK         0.3453 
     86 H86       -72.9672   29.3803  -74.6560 H         1 UNK         0.2984 
     87 H87       -73.0852   29.8410  -77.6680 H         1 UNK         0.0554 
     88 H88       -70.8505   29.4457  -78.7480 H         1 UNK         0.0847 
     89 H89       -70.0685   30.2813  -77.4057 H         1 UNK         0.0847 
     90 H90       -71.1742   31.1459  -78.4583 H         1 UNK         0.0847 
     91 H91       -72.8903   27.8523  -76.8208 H         1 UNK         0.3141 
     92 H92       -70.3564   25.8690  -75.6635 H         1 UNK         0.0743 
     93 H93       -72.3707   26.8511  -73.5665 H         1 UNK         0.0784 
     94 H94       -71.5737   25.2786  -73.5535 H         1 UNK         0.0784 
     95 H95       -70.6289   26.7457  -73.3579 H         1 UNK         0.0784 
     96 H96       -73.2442   25.6023  -75.5249 H         1 UNK         0.3213 
     97 H97       -73.7865   25.1644  -78.9722 H         1 UNK         0.0855 
     98 H98       -73.7086   22.8332  -76.9756 H         1 UNK         0.0814 
     99 H99       -72.8720   22.8718  -78.5224 H         1 UNK         0.0814 
    100 H100      -74.6272   22.8780  -78.4802 H         1 UNK         0.0814 
    101 H101      -75.5283   24.5499  -76.8587 H         1 UNK         0.3105 
    102 H102      -76.1503   27.6608  -75.4268 H         1 UNK         0.0547 
    103 H103      -77.5430   28.0252  -77.4544 H         1 UNK         0.0837 
    104 H104      -78.0001   26.3263  -77.4766 H         1 UNK         0.0837 
    105 H105      -78.5234   27.3649  -76.1554 H         1 UNK         0.0837 
    106 H106      -77.6478   25.3029  -75.1804 H         1 UNK         0.3020 
    107 H107      -75.5174   23.4137  -73.0398 H         1 UNK         0.1245 
    108 H108      -77.9034   25.2360  -72.5275 H         1 UNK         0.0781 
    109 H109      -78.0445   23.5616  -72.0788 H         1 UNK         0.0781 
    110 H110      -78.5347   24.8114  -69.6770 H         1 UNK         0.0836 
    111 H111      -77.2666   25.4933  -68.6872 H         1 UNK         0.0836 
    112 H112      -78.0251   23.2545  -74.6014 H         1 UNK         0.3022 
    113 H113      -76.7572   20.8191  -76.7680 H         1 UNK         0.0747 
    114 H114      -78.4524   19.2344  -75.8776 H         1 UNK         0.0793 
    115 H115      -77.0581   19.2943  -74.8132 H         1 UNK         0.0793 
    116 H116      -78.5349   20.1349  -74.3622 H         1 UNK         0.0793 
    117 H117      -79.4416   21.6326  -76.1194 H         1 UNK         0.3047 
    118 H118      -79.4654   24.5207  -78.2101 H         1 UNK         0.0822 
    119 H119      -81.3033   23.3021  -79.2992 H         1 UNK         0.0807 
    120 H120      -80.8213   21.7932  -78.5229 H         1 UNK         0.0807 
    121 H121      -79.7786   22.5451  -79.7224 H         1 UNK         0.0807 
    122 H122      -81.6657   23.6591  -76.9087 H         1 UNK         0.2946 
    123 H123      -82.4775   24.9554  -75.2439 H         1 UNK         0.1144 
    124 H124      -82.5972   24.1801  -72.8594 H         1 UNK         0.0793 
    125 H125      -80.8799   23.7799  -72.8880 H         1 UNK         0.0793 
    126 H126      -82.0121   22.8908  -73.8981 H         1 UNK         0.0793 
    127 H127      -80.9766   26.2282  -73.1126 H         1 UNK         0.2896 
@<TRIPOS>BOND
     1    1    2 1    
     2    1   67 1    
     3    1   68 1    
     4    1   69 1    
     5    2    3 2    
     6    2    4 am   BACKBONE|DICT|INTERRES
     7    4    5 1    
     8    4   70 1    
     9    5    6 1    
    10    5   65 1    
    11    5   71 1    
    12    6    7 1    
    13    6   72 1    
    14    6   73 1    
    15    7    8 1    
    16    8    9 1    
    17    8   74 1    
    18    8   75 1    
    19    9   10 ar   
    20    9   14 ar   
    21   10   11 ar   
    22   10   76 1    
    23   11   12 ar   
    24   11   48 1    
    25   12   13 ar   
    26   12   77 1    
    27   13   14 ar   
    28   13   15 1    
    29   14   78 1    
    30   15   16 1    
    31   15   79 1    
    32   15   80 1    
    33   16   17 1    
    34   17   18 1    
    35   17   81 1    
    36   17   82 1    
    37   18   19 1    
    38   18   22 1    
    39   18   83 1    
    40   19   20 am   BACKBONE|DICT|INTERRES
    41   19   21 2    
    42   20   84 1    
    43   20   85 1    
    44   22   23 am   BACKBONE|DICT|INTERRES
    45   22   86 1    
    46   23   24 2    
    47   23   25 1    
    48   25   26 1    
    49   25   27 1    
    50   25   87 1    
    51   26   88 1    
    52   26   89 1    
    53   26   90 1    
    54   27   28 am   BACKBONE|DICT|INTERRES
    55   27   91 1    
    56   28   29 2    
    57   28   30 1    
    58   30   31 1    
    59   30   32 1    
    60   30   92 1    
    61   31   93 1    
    62   31   94 1    
    63   31   95 1    
    64   32   33 am   BACKBONE|DICT|INTERRES
    65   32   96 1    
    66   33   34 2    
    67   33   35 1    
    68   35   36 1    
    69   35   37 1    
    70   35   97 1    
    71   36   98 1    
    72   36   99 1    
    73   36  100 1    
    74   37   38 am   BACKBONE|DICT|INTERRES
    75   37  101 1    
    76   38   39 2    
    77   38   40 1    
    78   40   41 1    
    79   40   42 1    
    80   40  102 1    
    81   41  103 1    
    82   41  104 1    
    83   41  105 1    
    84   42   43 am   BACKBONE|DICT|INTERRES
    85   42  106 1    
    86   43   44 2    
    87   43   45 1    
    88   45   46 1    
    89   45   49 1    
    90   45  107 1    
    91   46   47 1    
    92   46  108 1    
    93   46  109 1    
    94   47   48 1    
    95   48  110 1    
    96   48  111 1    
    97   49   50 am   BACKBONE|DICT|INTERRES
    98   49  112 1    
    99   50   51 2    
   100   50   52 1    
   101   52   53 1    
   102   52   54 1    
   103   52  113 1    
   104   53  114 1    
   105   53  115 1    
   106   53  116 1    
   107   54   55 am   BACKBONE|DICT|INTERRES
   108   54  117 1    
   109   55   56 2    
   110   55   57 1    
   111   57   58 1    
   112   57   59 1    
   113   57  118 1    
   114   58  119 1    
   115   58  120 1    
   116   58  121 1    
   117   59   60 am   BACKBONE|DICT|INTERRES
   118   59  122 1    
   119   60   61 2    
   120   60   62 1    
   121   62   63 1    
   122   62   64 1    
   123   62  123 1    
   124   63  124 1    
   125   63  125 1    
   126   63  126 1    
   127   64   65 am   BACKBONE|DICT|INTERRES
   128   64  127 1    
   129   65   66 2    
@<TRIPOS>SUBSTRUCTURE
     1 UNK         1 GROUP             0       ****    0 ROOT    
