@<TRIPOS>MOLECULE
3R135
127   129    1
SMALL
USER_CHARGES


@<TRIPOS>ATOM
      1 CA        -85.5944   29.2711  -75.2524 C.3       0 UNK        -0.1998 
      2 C         -84.1908   28.9096  -75.7144 C.2       0 UNK         0.4909 
      3 O         -83.8980   28.9950  -76.9073 O.2       0 UNK        -0.5240 
      4 N         -83.3210   28.5060  -74.7785 N.am      1 UNK        -0.4739 
      5 CA        -81.9259   28.1191  -75.0391 C.3       1 UNK         0.0864 
      6 C6        -81.0719   28.1572  -73.7464 C.3       11 UNK        -0.0881 
      7 S7        -80.9089   29.8683  -73.1352 S.3       11 UNK        -0.2682 
      8 C8        -80.2092   29.6208  -71.4711 C.3       11 UNK         0.0289 
      9 C9        -78.7614   29.1402  -71.4854 C.ar      11 UNK        -0.0687 
     10 C10       -78.3883   28.0314  -70.7183 C.ar      11 UNK        -0.0823 
     11 C11       -77.0574   27.6040  -70.6804 C.ar      11 UNK        -0.0830 
     12 C12       -76.1009   28.2942  -71.4298 C.ar      11 UNK        -0.1021 
     13 C13       -76.4536   29.3998  -72.2055 C.ar      11 UNK        -0.0753 
     14 C14       -77.7857   29.8247  -72.2206 C.ar      11 UNK        -0.0933 
     15 C15       -75.4042   30.1122  -73.0492 C.3       11 UNK         0.0166 
     16 S16       -74.3844   31.2638  -72.0748 S.3       11 UNK        -0.2615 
     17 C17       -73.0081   30.1973  -71.5107 C.3       11 UNK        -0.0865 
     18 CA        -71.7295   30.3551  -72.3757 C.3       10 UNK         0.0862 
     19 C         -70.5006   29.6493  -71.7264 C.2       10 UNK         0.5551 
     20 N         -69.7585   28.7994  -72.4279 N.am      10 UNK        -0.7319 
     21 O         -70.2052   29.8878  -70.5580 O.2       10 UNK        -0.5018 
     22 N         -71.9721   29.9571  -73.7714 N.am      10 UNK        -0.4509 
     23 C         -71.3586   30.4902  -74.8333 C.2       10 UNK         0.4899 
     24 O         -70.5563   31.4232  -74.7653 O.2       10 UNK        -0.4839 
     25 CA        -71.7033   29.8642  -76.1982 C.3       9 UNK         0.0222 
     26 CB        -70.7244   30.2863  -77.3143 C.3       9 UNK        -0.1966 
     27 N         -71.8363   28.4010  -76.1638 N.am      9 UNK        -0.4218 
     28 C         -70.9062   27.5053  -75.7888 C.2       9 UNK         0.5020 
     29 O         -69.8202   27.8221  -75.3010 O.2       9 UNK        -0.5274 
     30 CA        -71.2185   26.0031  -75.9700 C.3       8 UNK         0.0270 
     31 CB        -71.2457   25.2819  -74.6114 C.3       8 UNK        -0.1976 
     32 N         -72.4699   25.7298  -76.6815 N.am      8 UNK        -0.4313 
     33 C         -72.6870   25.9419  -77.9871 C.2       8 UNK         0.5041 
     34 O         -71.8113   26.2907  -78.7792 O.2       8 UNK        -0.5577 
     35 CA        -74.1391   25.8001  -78.4811 C.3       7 UNK         0.0284 
     36 CB        -74.3875   24.3993  -79.0635 C.3       7 UNK        -0.1958 
     37 N         -75.1340   26.0949  -77.4413 N.am      7 UNK        -0.4454 
     38 C         -75.2985   27.2941  -76.8621 C.2       7 UNK         0.5089 
     39 O         -74.6390   28.2907  -77.1559 O.2       7 UNK        -0.5125 
     40 CA        -76.3370   27.3867  -75.7355 C.3       6 UNK         0.0408 
     41 CB        -77.7398   27.6018  -76.3156 C.3       6 UNK        -0.1791 
     42 N         -76.3209   26.2065  -74.8670 N.am      6 UNK        -0.4762 
     43 C         -75.3486   25.9500  -73.9744 C.2       6 UNK         0.5007 
     44 O         -74.3995   26.7084  -73.7727 O.2       6 UNK        -0.5032 
     45 CA        -75.4051   24.5917  -73.2340 C.3       5 UNK         0.0783 
     46 C46       -76.2751   24.6524  -71.9529 C.3       11 UNK        -0.0857 
     47 S47       -75.3850   25.3372  -70.5208 S.3       11 UNK        -0.2512 
     48 C48       -76.6633   26.4223  -69.7963 C.3       11 UNK         0.0225 
     49 N         -75.8703   23.5074  -74.0980 N.am      5 UNK        -0.4615 
     50 C         -75.3304   23.1277  -75.2618 C.2       4 UNK         0.5053 
     51 O         -74.2703   23.5740  -75.6974 O.2       4 UNK        -0.5105 
     52 CA        -76.1416   22.1227  -76.1048 C.3       4 UNK         0.0263 
     53 CB        -75.4965   20.7295  -76.0443 C.3       4 UNK        -0.1981 
     54 N         -77.5572   22.0226  -75.7147 N.am      4 UNK        -0.4224 
     55 C         -78.4458   23.0260  -75.7713 C.2       3 UNK         0.4895 
     56 O         -78.1807   24.1536  -76.1959 O.2       3 UNK        -0.5091 
     57 CA        -79.8217   22.7469  -75.1590 C.3       3 UNK         0.0250 
     58 CB        -79.7635   22.8820  -73.6242 C.3       3 UNK        -0.1996 
     59 N         -80.7943   23.6908  -75.7015 N.am      3 UNK        -0.4254 
     60 C         -82.1191   23.5136  -75.7264 C.2       2 UNK         0.5004 
     61 O         -82.6805   22.5236  -75.2520 O.2       2 UNK        -0.5226 
     62 CA        -82.9540   24.6329  -76.3797 C.3       2 UNK         0.0269 
     63 CB        -84.4471   24.2697  -76.4946 C.3       2 UNK        -0.1926 
     64 N         -82.8385   25.9083  -75.6667 N.am      2 UNK        -0.4687 
     65 C         -81.8079   26.7603  -75.7641 C.2       1 UNK         0.5165 
     66 O         -80.7987   26.5161  -76.4249 O.2       1 UNK        -0.5079 
     67 H67       -85.8178   30.3067  -75.5076 H         1 UNK         0.0900 
     68 H68       -85.7121   29.1548  -74.1751 H         1 UNK         0.0900 
     69 H69       -86.3274   28.6326  -75.7448 H         1 UNK         0.0900 
     70 H70       -83.6086   28.4803  -73.8104 H         1 UNK         0.2959 
     71 H71       -81.5066   28.8521  -75.7329 H         1 UNK         0.1079 
     72 H72       -81.5152   27.5309  -72.9702 H         1 UNK         0.0837 
     73 H73       -80.0684   27.7657  -73.9177 H         1 UNK         0.0837 
     74 H74       -80.8480   28.9291  -70.9197 H         1 UNK         0.0685 
     75 H75       -80.2506   30.5692  -70.9342 H         1 UNK         0.0685 
     76 H76       -79.1339   27.5101  -70.1334 H         1 UNK         0.1434 
     77 H77       -75.0771   27.9557  -71.4184 H         1 UNK         0.1329 
     78 H78       -78.0673   30.6862  -72.8105 H         1 UNK         0.1335 
     79 H79       -74.7640   29.3820  -73.5436 H         1 UNK         0.0680 
     80 H80       -75.8895   30.6738  -73.8488 H         1 UNK         0.0680 
     81 H81       -72.8029   30.4715  -70.4741 H         1 UNK         0.1032 
     82 H82       -73.3106   29.1526  -71.4843 H         1 UNK         0.1032 
     83 H83       -71.4779   31.4175  -72.3685 H         1 UNK         0.0461 
     84 H84       -68.9669   28.3622  -71.9842 H         1 UNK         0.3453 
     85 H85       -69.9505   28.6112  -73.4050 H         1 UNK         0.3453 
     86 H86       -72.5885   29.1702  -73.9127 H         1 UNK         0.2984 
     87 H87       -72.6885   30.2496  -76.4641 H         1 UNK         0.0554 
     88 H88       -71.0081   29.8546  -78.2741 H         1 UNK         0.0847 
     89 H89       -69.7029   29.9735  -77.0948 H         1 UNK         0.0847 
     90 H90       -70.7137   31.3699  -77.4387 H         1 UNK         0.0847 
     91 H91       -72.7202   28.0521  -76.5207 H         1 UNK         0.3141 
     92 H92       -70.4031   25.5794  -76.5596 H         1 UNK         0.0743 
     93 H93       -70.2864   25.3755  -74.1006 H         1 UNK         0.0784 
     94 H94       -72.0052   25.6948  -73.9484 H         1 UNK         0.0784 
     95 H95       -71.4463   24.2167  -74.7295 H         1 UNK         0.0784 
     96 H96       -73.2335   25.3485  -76.1329 H         1 UNK         0.3213 
     97 H97       -74.2809   26.5287  -79.2824 H         1 UNK         0.0855 
     98 H98       -74.2079   23.6141  -78.3296 H         1 UNK         0.0814 
     99 H99       -73.7209   24.2089  -79.9056 H         1 UNK         0.0814 
    100 H100      -75.4087   24.2935  -79.4300 H         1 UNK         0.0814 
    101 H101      -75.7081   25.3278  -77.1218 H         1 UNK         0.3105 
    102 H102      -76.0956   28.2614  -75.1311 H         1 UNK         0.0547 
    103 H103      -78.0689   26.7534  -76.9163 H         1 UNK         0.0837 
    104 H104      -78.4701   27.7573  -75.5248 H         1 UNK         0.0837 
    105 H105      -77.7677   28.4844  -76.9559 H         1 UNK         0.0837 
    106 H106      -77.0424   25.5129  -75.0314 H         1 UNK         0.3020 
    107 H107      -74.3795   24.3400  -72.9538 H         1 UNK         0.1245 
    108 H108      -76.5826   23.6482  -71.6559 H         1 UNK         0.0781 
    109 H109      -77.2030   25.1995  -72.1324 H         1 UNK         0.0781 
    110 H110      -77.5371   25.8143  -69.5563 H         1 UNK         0.0836 
    111 H111      -76.2903   26.8121  -68.8484 H         1 UNK         0.0836 
    112 H112      -76.7332   23.0641  -73.8244 H         1 UNK         0.3022 
    113 H113      -76.1092   22.4710  -77.1389 H         1 UNK         0.0747 
    114 H114      -74.4523   20.7691  -76.3586 H         1 UNK         0.0793 
    115 H115      -76.0042   20.0271  -76.7056 H         1 UNK         0.0793 
    116 H116      -75.5170   20.3176  -75.0345 H         1 UNK         0.0793 
    117 H117      -77.8561   21.1318  -75.3425 H         1 UNK         0.3047 
    118 H118      -80.1203   21.7318  -75.4304 H         1 UNK         0.0822 
    119 H119      -79.0464   22.1845  -73.1899 H         1 UNK         0.0807 
    120 H120      -80.7304   22.6667  -73.1690 H         1 UNK         0.0807 
    121 H121      -79.4711   23.8882  -73.3202 H         1 UNK         0.0807 
    122 H122      -80.3993   24.5377  -76.1048 H         1 UNK         0.2946 
    123 H123      -82.5693   24.7631  -77.3942 H         1 UNK         0.1144 
    124 H124      -84.9077   24.1349  -75.5151 H         1 UNK         0.0793 
    125 H125      -84.5821   23.3405  -77.0499 H         1 UNK         0.0793 
    126 H126      -85.0037   25.0437  -77.0236 H         1 UNK         0.0793 
    127 H127      -83.6213   26.1776  -75.0888 H         1 UNK         0.2896 
@<TRIPOS>BOND
     1    1    2 1    
     2    1   67 1    
     3    1   68 1    
     4    1   69 1    
     5    2    3 2    
     6    2    4 am   BACKBONE|DICT|INTERRES
     7    4    5 1    
     8    4   70 1    
     9    5    6 1    
    10    5   65 1    
    11    5   71 1    
    12    6    7 1    
    13    6   72 1    
    14    6   73 1    
    15    7    8 1    
    16    8    9 1    
    17    8   74 1    
    18    8   75 1    
    19    9   10 ar   
    20    9   14 ar   
    21   10   11 ar   
    22   10   76 1    
    23   11   12 ar   
    24   11   48 1    
    25   12   13 ar   
    26   12   77 1    
    27   13   14 ar   
    28   13   15 1    
    29   14   78 1    
    30   15   16 1    
    31   15   79 1    
    32   15   80 1    
    33   16   17 1    
    34   17   18 1    
    35   17   81 1    
    36   17   82 1    
    37   18   19 1    
    38   18   22 1    
    39   18   83 1    
    40   19   20 am   BACKBONE|DICT|INTERRES
    41   19   21 2    
    42   20   84 1    
    43   20   85 1    
    44   22   23 am   BACKBONE|DICT|INTERRES
    45   22   86 1    
    46   23   24 2    
    47   23   25 1    
    48   25   26 1    
    49   25   27 1    
    50   25   87 1    
    51   26   88 1    
    52   26   89 1    
    53   26   90 1    
    54   27   28 am   BACKBONE|DICT|INTERRES
    55   27   91 1    
    56   28   29 2    
    57   28   30 1    
    58   30   31 1    
    59   30   32 1    
    60   30   92 1    
    61   31   93 1    
    62   31   94 1    
    63   31   95 1    
    64   32   33 am   BACKBONE|DICT|INTERRES
    65   32   96 1    
    66   33   34 2    
    67   33   35 1    
    68   35   36 1    
    69   35   37 1    
    70   35   97 1    
    71   36   98 1    
    72   36   99 1    
    73   36  100 1    
    74   37   38 am   BACKBONE|DICT|INTERRES
    75   37  101 1    
    76   38   39 2    
    77   38   40 1    
    78   40   41 1    
    79   40   42 1    
    80   40  102 1    
    81   41  103 1    
    82   41  104 1    
    83   41  105 1    
    84   42   43 am   BACKBONE|DICT|INTERRES
    85   42  106 1    
    86   43   44 2    
    87   43   45 1    
    88   45   46 1    
    89   45   49 1    
    90   45  107 1    
    91   46   47 1    
    92   46  108 1    
    93   46  109 1    
    94   47   48 1    
    95   48  110 1    
    96   48  111 1    
    97   49   50 am   BACKBONE|DICT|INTERRES
    98   49  112 1    
    99   50   51 2    
   100   50   52 1    
   101   52   53 1    
   102   52   54 1    
   103   52  113 1    
   104   53  114 1    
   105   53  115 1    
   106   53  116 1    
   107   54   55 am   BACKBONE|DICT|INTERRES
   108   54  117 1    
   109   55   56 2    
   110   55   57 1    
   111   57   58 1    
   112   57   59 1    
   113   57  118 1    
   114   58  119 1    
   115   58  120 1    
   116   58  121 1    
   117   59   60 am   BACKBONE|DICT|INTERRES
   118   59  122 1    
   119   60   61 2    
   120   60   62 1    
   121   62   63 1    
   122   62   64 1    
   123   62  123 1    
   124   63  124 1    
   125   63  125 1    
   126   63  126 1    
   127   64   65 am   BACKBONE|DICT|INTERRES
   128   64  127 1    
   129   65   66 2    
@<TRIPOS>SUBSTRUCTURE
     1 UNK         1 GROUP             0       ****    0 ROOT    
