@<TRIPOS>MOLECULE
3R135
127   129    1
SMALL
USER_CHARGES


@<TRIPOS>ATOM
      1 CA        -79.7849   31.1151  -78.4424 C.3       0 UNK        -0.1998 
      2 C         -79.5129   29.6802  -78.0166 C.2       0 UNK         0.4909 
      3 O         -79.5312   28.7788  -78.8540 O.2       0 UNK        -0.5240 
      4 N         -79.2460   29.4666  -76.7238 N.am      1 UNK        -0.4739 
      5 CA        -79.0236   28.1525  -76.1148 C.3       1 UNK         0.0864 
      6 C6        -78.2941   28.2823  -74.7522 C.3       11 UNK        -0.0881 
      7 S7        -79.1321   29.3770  -73.5491 S.3       11 UNK        -0.2682 
      8 C8        -79.2537   28.2993  -72.0853 C.3       11 UNK         0.0289 
      9 C9        -77.8801   27.9827  -71.5108 C.ar      11 UNK        -0.0687 
     10 C10       -77.3602   26.6874  -71.5875 C.ar      11 UNK        -0.0823 
     11 C11       -76.0753   26.4086  -71.1095 C.ar      11 UNK        -0.0830 
     12 C12       -75.3158   27.4330  -70.5374 C.ar      11 UNK        -0.1021 
     13 C13       -75.8313   28.7291  -70.4437 C.ar      11 UNK        -0.0753 
     14 C14       -77.1175   28.9950  -70.9214 C.ar      11 UNK        -0.0933 
     15 C15       -74.9910   29.8507  -69.8568 C.3       11 UNK         0.0166 
     16 S16       -74.3623   30.9251  -71.1831 S.3       11 UNK        -0.2615 
     17 C17       -72.6359   31.2215  -70.6575 C.3       11 UNK        -0.0865 
     18 CA        -71.6008   30.2681  -71.3191 C.3       10 UNK         0.0862 
     19 C         -71.4961   28.8981  -70.5865 C.2       10 UNK         0.5551 
     20 N         -71.6769   27.7665  -71.2569 N.am      10 UNK        -0.7319 
     21 O         -71.2295   28.8629  -69.3879 O.2       10 UNK        -0.5018 
     22 N         -71.8240   30.1653  -72.7681 N.am      10 UNK        -0.4509 
     23 C         -70.8882   29.9932  -73.7069 C.2       10 UNK         0.4899 
     24 O         -69.6810   29.9569  -73.4668 O.2       10 UNK        -0.4839 
     25 CA        -71.3722   29.8134  -75.1604 C.3       9 UNK         0.0222 
     26 CB        -70.8934   28.4671  -75.7310 C.3       9 UNK        -0.1966 
     27 N         -72.8290   29.8866  -75.3120 N.am      9 UNK        -0.4218 
     28 C         -73.5695   31.0002  -75.3604 C.2       9 UNK         0.5020 
     29 O         -73.0991   32.1369  -75.2939 O.2       9 UNK        -0.5274 
     30 CA        -75.0903   30.7887  -75.5210 C.3       8 UNK         0.0270 
     31 CB        -75.8888   32.1039  -75.4637 C.3       8 UNK        -0.1976 
     32 N         -75.4241   30.0803  -76.7625 N.am      8 UNK        -0.4313 
     33 C         -75.2402   28.7716  -76.9724 C.2       8 UNK         0.5041 
     34 O         -74.7631   28.0070  -76.1270 O.2       8 UNK        -0.5577 
     35 CA        -75.6222   28.2267  -78.3515 C.3       7 UNK         0.0284 
     36 CB        -74.5717   28.6041  -79.4114 C.3       7 UNK        -0.1958 
     37 N         -75.7048   26.7779  -78.2298 N.am      7 UNK        -0.4454 
     38 C         -76.4501   25.9531  -78.9690 C.2       7 UNK         0.5089 
     39 O         -77.1174   26.3186  -79.9368 O.2       7 UNK        -0.5125 
     40 CA        -76.4466   24.4614  -78.5771 C.3       6 UNK         0.0408 
     41 CB        -75.6880   23.6340  -79.6282 C.3       6 UNK        -0.1791 
     42 N         -75.8836   24.1736  -77.2500 N.am      6 UNK        -0.4762 
     43 C         -76.4676   24.4995  -76.0891 C.2       6 UNK         0.5007 
     44 O         -77.5094   25.1517  -76.0030 O.2       6 UNK        -0.5032 
     45 CA        -75.7854   24.0359  -74.7972 C.3       5 UNK         0.0783 
     46 C46       -75.2040   25.2576  -74.0401 C.3       11 UNK        -0.0857 
     47 S47       -74.2647   24.8292  -72.5355 S.3       11 UNK        -0.2512 
     48 C48       -75.5084   24.9998  -71.2125 C.3       11 UNK         0.0225 
     49 N         -76.8201   23.3252  -74.0475 N.am      5 UNK        -0.4615 
     50 C         -76.6747   22.1285  -73.4693 C.2       4 UNK         0.5053 
     51 O         -75.6104   21.5120  -73.4173 O.2       4 UNK        -0.5105 
     52 CA        -77.9368   21.5052  -72.8496 C.3       4 UNK         0.0263 
     53 CB        -78.2081   22.0865  -71.4521 C.3       4 UNK        -0.1981 
     54 N         -79.1315   21.6660  -73.6835 N.am      4 UNK        -0.4224 
     55 C         -79.3661   20.9902  -74.8191 C.2       3 UNK         0.4895 
     56 O         -78.5792   20.1809  -75.3108 O.2       3 UNK        -0.5091 
     57 CA        -80.7185   21.2384  -75.5127 C.3       3 UNK         0.0250 
     58 CB        -81.7756   20.2484  -74.9961 C.3       3 UNK        -0.1996 
     59 N         -81.2042   22.6089  -75.3268 N.am      3 UNK        -0.4254 
     60 C         -80.7440   23.6632  -76.0130 C.2       2 UNK         0.5004 
     61 O         -79.9422   23.5629  -76.9435 O.2       2 UNK        -0.5226 
     62 CA        -81.2493   25.0547  -75.5941 C.3       2 UNK         0.0269 
     63 CB        -81.7198   25.1316  -74.1228 C.3       2 UNK        -0.1926 
     64 N         -80.1801   26.0229  -75.8227 N.am      2 UNK        -0.4687 
     65 C         -80.3310   27.3401  -75.9838 C.2       1 UNK         0.5165 
     66 O         -81.4279   27.9069  -75.9883 O.2       1 UNK        -0.5079 
     67 H67       -79.6976   31.8115  -77.6086 H         1 UNK         0.0900 
     68 H68       -79.0771   31.4189  -79.2132 H         1 UNK         0.0900 
     69 H69       -80.7915   31.1998  -78.8512 H         1 UNK         0.0900 
     70 H70       -79.2917   30.2333  -76.0675 H         1 UNK         0.2959 
     71 H71       -78.3715   27.5897  -76.7869 H         1 UNK         0.1079 
     72 H72       -77.2939   28.6824  -74.9094 H         1 UNK         0.0837 
     73 H73       -78.1347   27.2958  -74.3149 H         1 UNK         0.0837 
     74 H74       -79.7914   27.3877  -72.3519 H         1 UNK         0.0685 
     75 H75       -79.8540   28.8007  -71.3249 H         1 UNK         0.0685 
     76 H76       -77.9467   25.9000  -72.0404 H         1 UNK         0.1434 
     77 H77       -74.3176   27.2220  -70.1790 H         1 UNK         0.1329 
     78 H78       -77.5120   30.0006  -70.8676 H         1 UNK         0.1335 
     79 H79       -75.5903   30.4445  -69.1653 H         1 UNK         0.0680 
     80 H80       -74.1667   29.4377  -69.2740 H         1 UNK         0.0680 
     81 H81       -72.3933   32.2467  -70.9413 H         1 UNK         0.1032 
     82 H82       -72.5616   31.2072  -69.5683 H         1 UNK         0.1032 
     83 H83       -70.6228   30.7306  -71.1729 H         1 UNK         0.0461 
     84 H84       -71.5941   26.8863  -70.7742 H         1 UNK         0.3453 
     85 H85       -71.8978   27.7856  -72.2385 H         1 UNK         0.3453 
     86 H86       -72.7927   30.1815  -73.0513 H         1 UNK         0.2984 
     87 H87       -70.9220   30.6136  -75.7513 H         1 UNK         0.0554 
     88 H88       -69.8065   28.3846  -75.6882 H         1 UNK         0.0847 
     89 H89       -71.1825   28.3539  -76.7762 H         1 UNK         0.0847 
     90 H90       -71.3069   27.6236  -75.1765 H         1 UNK         0.0847 
     91 H91       -73.3290   29.0059  -75.4247 H         1 UNK         0.3141 
     92 H92       -75.4124   30.1780  -74.6743 H         1 UNK         0.0743 
     93 H93       -75.6306   32.7717  -76.2865 H         1 UNK         0.0784 
     94 H94       -76.9622   31.9170  -75.5038 H         1 UNK         0.0784 
     95 H95       -75.6910   32.6385  -74.5335 H         1 UNK         0.0784 
     96 H96       -75.7735   30.6497  -77.5200 H         1 UNK         0.3213 
     97 H97       -76.5997   28.6260  -78.6304 H         1 UNK         0.0855 
     98 H98       -73.5814   28.2310  -79.1463 H         1 UNK         0.0814 
     99 H99       -74.4944   29.6860  -79.5242 H         1 UNK         0.0814 
    100 H100      -74.8310   28.1968  -80.3888 H         1 UNK         0.0814 
    101 H101      -75.2281   26.4158  -77.4124 H         1 UNK         0.3105 
    102 H102      -77.4880   24.1317  -78.5743 H         1 UNK         0.0547 
    103 H103      -75.7532   22.5664  -79.4178 H         1 UNK         0.0837 
    104 H104      -74.6329   23.9066  -79.6722 H         1 UNK         0.0837 
    105 H105      -76.1053   23.7898  -80.6242 H         1 UNK         0.0837 
    106 H106      -75.0196   23.6499  -77.2368 H         1 UNK         0.3020 
    107 H107      -74.9702   23.3546  -75.0517 H         1 UNK         0.1245 
    108 H108      -75.9830   25.9822  -73.8056 H         1 UNK         0.0781 
    109 H109      -74.5056   25.7893  -74.6883 H         1 UNK         0.0781 
    110 H110      -75.0472   24.7275  -70.2621 H         1 UNK         0.0836 
    111 H111      -76.3061   24.2773  -71.3751 H         1 UNK         0.0836 
    112 H112      -77.7414   23.7332  -74.1129 H         1 UNK         0.3022 
    113 H113      -77.7481   20.4354  -72.7342 H         1 UNK         0.0747 
    114 H114      -79.0251   21.5603  -70.9580 H         1 UNK         0.0793 
    115 H115      -77.3305   21.9888  -70.8113 H         1 UNK         0.0793 
    116 H116      -78.4695   23.1443  -71.4935 H         1 UNK         0.0793 
    117 H117      -79.8422   22.2973  -73.3462 H         1 UNK         0.3047 
    118 H118      -80.5798   21.0556  -76.5809 H         1 UNK         0.0822 
    119 H119      -82.7209   20.3654  -75.5266 H         1 UNK         0.0807 
    120 H120      -81.9694   20.3787  -73.9306 H         1 UNK         0.0807 
    121 H121      -81.4491   19.2179  -75.1439 H         1 UNK         0.0807 
    122 H122      -81.8886   22.7605  -74.5997 H         1 UNK         0.2946 
    123 H123      -82.0883   25.2969  -76.2501 H         1 UNK         0.1144 
    124 H124      -82.0286   26.1430  -73.8578 H         1 UNK         0.0793 
    125 H125      -80.9298   24.8395  -73.4298 H         1 UNK         0.0793 
    126 H126      -82.5825   24.4898  -73.9416 H         1 UNK         0.0793 
    127 H127      -79.2459   25.6195  -75.9112 H         1 UNK         0.2896 
@<TRIPOS>BOND
     1    1    2 1    
     2    1   67 1    
     3    1   68 1    
     4    1   69 1    
     5    2    3 2    
     6    2    4 am   BACKBONE|DICT|INTERRES
     7    4    5 1    
     8    4   70 1    
     9    5    6 1    
    10    5   65 1    
    11    5   71 1    
    12    6    7 1    
    13    6   72 1    
    14    6   73 1    
    15    7    8 1    
    16    8    9 1    
    17    8   74 1    
    18    8   75 1    
    19    9   10 ar   
    20    9   14 ar   
    21   10   11 ar   
    22   10   76 1    
    23   11   12 ar   
    24   11   48 1    
    25   12   13 ar   
    26   12   77 1    
    27   13   14 ar   
    28   13   15 1    
    29   14   78 1    
    30   15   16 1    
    31   15   79 1    
    32   15   80 1    
    33   16   17 1    
    34   17   18 1    
    35   17   81 1    
    36   17   82 1    
    37   18   19 1    
    38   18   22 1    
    39   18   83 1    
    40   19   20 am   BACKBONE|DICT|INTERRES
    41   19   21 2    
    42   20   84 1    
    43   20   85 1    
    44   22   23 am   BACKBONE|DICT|INTERRES
    45   22   86 1    
    46   23   24 2    
    47   23   25 1    
    48   25   26 1    
    49   25   27 1    
    50   25   87 1    
    51   26   88 1    
    52   26   89 1    
    53   26   90 1    
    54   27   28 am   BACKBONE|DICT|INTERRES
    55   27   91 1    
    56   28   29 2    
    57   28   30 1    
    58   30   31 1    
    59   30   32 1    
    60   30   92 1    
    61   31   93 1    
    62   31   94 1    
    63   31   95 1    
    64   32   33 am   BACKBONE|DICT|INTERRES
    65   32   96 1    
    66   33   34 2    
    67   33   35 1    
    68   35   36 1    
    69   35   37 1    
    70   35   97 1    
    71   36   98 1    
    72   36   99 1    
    73   36  100 1    
    74   37   38 am   BACKBONE|DICT|INTERRES
    75   37  101 1    
    76   38   39 2    
    77   38   40 1    
    78   40   41 1    
    79   40   42 1    
    80   40  102 1    
    81   41  103 1    
    82   41  104 1    
    83   41  105 1    
    84   42   43 am   BACKBONE|DICT|INTERRES
    85   42  106 1    
    86   43   44 2    
    87   43   45 1    
    88   45   46 1    
    89   45   49 1    
    90   45  107 1    
    91   46   47 1    
    92   46  108 1    
    93   46  109 1    
    94   47   48 1    
    95   48  110 1    
    96   48  111 1    
    97   49   50 am   BACKBONE|DICT|INTERRES
    98   49  112 1    
    99   50   51 2    
   100   50   52 1    
   101   52   53 1    
   102   52   54 1    
   103   52  113 1    
   104   53  114 1    
   105   53  115 1    
   106   53  116 1    
   107   54   55 am   BACKBONE|DICT|INTERRES
   108   54  117 1    
   109   55   56 2    
   110   55   57 1    
   111   57   58 1    
   112   57   59 1    
   113   57  118 1    
   114   58  119 1    
   115   58  120 1    
   116   58  121 1    
   117   59   60 am   BACKBONE|DICT|INTERRES
   118   59  122 1    
   119   60   61 2    
   120   60   62 1    
   121   62   63 1    
   122   62   64 1    
   123   62  123 1    
   124   63  124 1    
   125   63  125 1    
   126   63  126 1    
   127   64   65 am   BACKBONE|DICT|INTERRES
   128   64  127 1    
   129   65   66 2    
@<TRIPOS>SUBSTRUCTURE
     1 UNK         1 GROUP             0       ****    0 ROOT    
