@<TRIPOS>MOLECULE
3R135
127   129    1
SMALL
USER_CHARGES


@<TRIPOS>ATOM
      1 CA        -80.7400   21.6759  -72.7582 C.3       0 UNK        -0.1998 
      2 C         -81.1481   23.1406  -72.7844 C.2       0 UNK         0.4909 
      3 O         -82.0287   23.5163  -73.5584 O.2       0 UNK        -0.5240 
      4 N         -80.5002   23.9693  -71.9542 N.am      1 UNK        -0.4739 
      5 CA        -80.7120   25.4167  -71.8143 C.3       1 UNK         0.0864 
      6 C6        -79.7884   25.9965  -70.7093 C.3       11 UNK        -0.0881 
      7 S7        -80.5392   27.3402  -69.7281 S.3       11 UNK        -0.2682 
      8 C8        -80.5238   28.7830  -70.8521 C.3       11 UNK         0.0289 
      9 C9        -79.1765   29.1440  -71.4803 C.ar      11 UNK        -0.0687 
     10 C10       -79.1767   29.8239  -72.7026 C.ar      11 UNK        -0.0823 
     11 C11       -77.9789   30.1854  -73.3257 C.ar      11 UNK        -0.0830 
     12 C12       -76.7660   29.8478  -72.7204 C.ar      11 UNK        -0.1021 
     13 C13       -76.7457   29.1630  -71.5031 C.ar      11 UNK        -0.0753 
     14 C14       -77.9508   28.8375  -70.8738 C.ar      11 UNK        -0.0933 
     15 C15       -75.4162   28.7512  -70.8946 C.3       11 UNK         0.0166 
     16 S16       -74.5585   30.1732  -70.1546 S.3       11 UNK        -0.2615 
     17 C17       -72.8213   29.6273  -70.2778 C.3       11 UNK        -0.0865 
     18 CA        -72.0854   30.2911  -71.4707 C.3       10 UNK         0.0862 
     19 C         -70.5700   29.9550  -71.4397 C.2       10 UNK         0.5551 
     20 N         -69.7738   30.7530  -70.7421 N.am      10 UNK        -0.7319 
     21 O         -70.1190   28.9598  -72.0044 O.2       10 UNK        -0.5018 
     22 N         -72.6968   29.9254  -72.7559 N.am      10 UNK        -0.4509 
     23 C         -72.5172   30.5819  -73.9056 C.2       10 UNK         0.4899 
     24 O         -71.8827   31.6336  -74.0049 O.2       10 UNK        -0.4839 
     25 CA        -73.1302   29.9243  -75.1554 C.3       9 UNK         0.0222 
     26 CB        -73.1119   30.8517  -76.3843 C.3       9 UNK        -0.1966 
     27 N         -72.4326   28.6786  -75.4809 N.am      9 UNK        -0.4218 
     28 C         -72.6267   27.5074  -74.8632 C.2       9 UNK         0.5020 
     29 O         -73.4661   27.3327  -73.9770 O.2       9 UNK        -0.5274 
     30 CA        -71.7268   26.3473  -75.2973 C.3       8 UNK         0.0270 
     31 CB        -71.1429   25.5959  -74.0862 C.3       8 UNK        -0.1976 
     32 N         -72.5023   25.4305  -76.1266 N.am      8 UNK        -0.4313 
     33 C         -72.0031   24.7002  -77.1319 C.2       8 UNK         0.5041 
     34 O         -70.8191   24.7211  -77.4719 O.2       8 UNK        -0.5577 
     35 CA        -72.9830   23.7986  -77.8972 C.3       7 UNK         0.0284 
     36 CB        -73.3021   22.5267  -77.0928 C.3       7 UNK        -0.1958 
     37 N         -74.2220   24.5105  -78.2096 N.am      7 UNK        -0.4454 
     38 C         -74.4435   25.1907  -79.3430 C.2       7 UNK         0.5089 
     39 O         -73.6444   25.2391  -80.2789 O.2       7 UNK        -0.5125 
     40 CA        -75.7826   25.9434  -79.4693 C.3       6 UNK         0.0408 
     41 CB        -76.7985   25.1022  -80.2577 C.3       6 UNK        -0.1791 
     42 N         -76.3671   26.3196  -78.1803 N.am      6 UNK        -0.4762 
     43 C         -75.8606   27.2510  -77.3574 C.2       6 UNK         0.5007 
     44 O         -74.8676   27.9245  -77.6291 O.2       6 UNK        -0.5032 
     45 CA        -76.5603   27.4293  -75.9901 C.3       5 UNK         0.0783 
     46 C46       -77.6637   28.5151  -76.0764 C.3       11 UNK        -0.0857 
     47 S47       -76.9759   30.2001  -75.9474 S.3       11 UNK        -0.2512 
     48 C48       -78.0089   30.9497  -74.6450 C.3       11 UNK         0.0225 
     49 N         -77.0944   26.1750  -75.4445 N.am      5 UNK        -0.4615 
     50 C         -76.4165   25.0328  -75.2625 C.2       4 UNK         0.5053 
     51 O         -75.2166   24.9033  -75.4991 O.2       4 UNK        -0.5105 
     52 CA        -77.2238   23.8053  -74.8124 C.3       4 UNK         0.0263 
     53 CB        -77.1855   23.6542  -73.2836 C.3       4 UNK        -0.1981 
     54 N         -78.6116   23.8569  -75.2845 N.am      4 UNK        -0.4224 
     55 C         -78.9855   23.6334  -76.5543 C.2       3 UNK         0.4895 
     56 O         -78.2028   23.2979  -77.4427 O.2       3 UNK        -0.5091 
     57 CA        -80.4698   23.8388  -76.9062 C.3       3 UNK         0.0250 
     58 CB        -81.2416   22.5137  -76.8054 C.3       3 UNK        -0.1996 
     59 N         -81.1130   24.8521  -76.0650 N.am      3 UNK        -0.4254 
     60 C         -80.9666   26.1739  -76.2465 C.2       2 UNK         0.5004 
     61 O         -80.3460   26.6667  -77.1880 O.2       2 UNK        -0.5226 
     62 CA        -81.5725   27.1084  -75.1796 C.3       2 UNK         0.0269 
     63 CB        -82.9948   27.5324  -75.5769 C.3       2 UNK        -0.1926 
     64 N         -81.5948   26.5322  -73.8296 N.am      2 UNK        -0.4687 
     65 C         -80.5016   26.1358  -73.1640 C.2       1 UNK         0.5165 
     66 O         -79.3626   26.2524  -73.6174 O.2       1 UNK        -0.5079 
     67 H67       -80.1735   21.4262  -73.6547 H         1 UNK         0.0900 
     68 H68       -80.1242   21.4413  -71.8902 H         1 UNK         0.0900 
     69 H69       -81.6244   21.0402  -72.7247 H         1 UNK         0.0900 
     70 H70       -79.7834   23.5846  -71.3560 H         1 UNK         0.2959 
     71 H71       -81.7518   25.5486  -71.5078 H         1 UNK         0.1079 
     72 H72       -78.8138   26.2958  -71.0969 H         1 UNK         0.0837 
     73 H73       -79.5591   25.2193  -69.9784 H         1 UNK         0.0837 
     74 H74       -81.2621   28.6063  -71.6353 H         1 UNK         0.0685 
     75 H75       -80.8795   29.6496  -70.2936 H         1 UNK         0.0685 
     76 H76       -80.1187   30.0776  -73.1696 H         1 UNK         0.1434 
     77 H77       -75.8338   30.1139  -73.1985 H         1 UNK         0.1329 
     78 H78       -77.9289   28.3236  -69.9233 H         1 UNK         0.1335 
     79 H79       -75.5554   27.9808  -70.1346 H         1 UNK         0.0680 
     80 H80       -74.8011   28.3026  -71.6756 H         1 UNK         0.0680 
     81 H81       -72.3323   29.8920  -69.3382 H         1 UNK         0.1032 
     82 H82       -72.7702   28.5386  -70.3433 H         1 UNK         0.1032 
     83 H83       -72.1847   31.3732  -71.3603 H         1 UNK         0.0461 
     84 H84       -70.1348   31.5669  -70.2688 H         1 UNK         0.3453 
     85 H85       -68.7886   30.5438  -70.6964 H         1 UNK         0.3453 
     86 H86       -73.1526   29.0213  -72.8013 H         1 UNK         0.2984 
     87 H87       -74.1736   29.6967  -74.9314 H         1 UNK         0.0554 
     88 H88       -73.6408   31.7827  -76.1758 H         1 UNK         0.0847 
     89 H89       -73.6077   30.3865  -77.2366 H         1 UNK         0.0847 
     90 H90       -72.0964   31.1116  -76.6855 H         1 UNK         0.0847 
     91 H91       -71.7178   28.7393  -76.1917 H         1 UNK         0.3141 
     92 H92       -70.8968   26.7564  -75.8777 H         1 UNK         0.0743 
     93 H93       -71.9243   25.1197  -73.4925 H         1 UNK         0.0784 
     94 H94       -70.4427   24.8216  -74.4001 H         1 UNK         0.0784 
     95 H95       -70.6017   26.2781  -73.4288 H         1 UNK         0.0784 
     96 H96       -73.4920   25.3484  -75.8907 H         1 UNK         0.3213 
     97 H97       -72.4967   23.4883  -78.8249 H         1 UNK         0.0855 
     98 H98       -73.7761   22.7519  -76.1371 H         1 UNK         0.0814 
     99 H99       -72.3916   21.9656  -76.8785 H         1 UNK         0.0814 
    100 H100      -73.9672   21.8649  -77.6476 H         1 UNK         0.0814 
    101 H101      -74.9033   24.5767  -77.4618 H         1 UNK         0.3105 
    102 H102      -75.5926   26.8598  -80.0321 H         1 UNK         0.0547 
    103 H103      -76.4120   24.8509  -81.2463 H         1 UNK         0.0837 
    104 H104      -77.0262   24.1640  -79.7505 H         1 UNK         0.0837 
    105 H105      -77.7345   25.6412  -80.4044 H         1 UNK         0.0837 
    106 H106      -77.1806   25.8006  -77.8782 H         1 UNK         0.3020 
    107 H107      -75.7984   27.7564  -75.2795 H         1 UNK         0.1245 
    108 H108      -78.3883   28.3730  -75.2741 H         1 UNK         0.0781 
    109 H109      -78.2405   28.4342  -76.9999 H         1 UNK         0.0781 
    110 H110      -79.0293   31.0344  -75.0220 H         1 UNK         0.0836 
    111 H111      -77.6628   31.9686  -74.4669 H         1 UNK         0.0836 
    112 H112      -78.0532   26.2046  -75.1138 H         1 UNK         0.3022 
    113 H113      -76.7483   22.9232  -75.2471 H         1 UNK         0.0747 
    114 H114      -77.7286   22.7673  -72.9581 H         1 UNK         0.0793 
    115 H115      -76.1577   23.5496  -72.9336 H         1 UNK         0.0793 
    116 H116      -77.6101   24.5192  -72.7748 H         1 UNK         0.0793 
    117 H117      -79.2962   24.2142  -74.6335 H         1 UNK         0.3047 
    118 H118      -80.5150   24.1708  -77.9461 H         1 UNK         0.0822 
    119 H119      -82.2809   22.6371  -77.1105 H         1 UNK         0.0807 
    120 H120      -81.2367   22.1138  -75.7919 H         1 UNK         0.0807 
    121 H121      -80.8014   21.7566  -77.4558 H         1 UNK         0.0807 
    122 H122      -81.6272   24.5193  -75.2538 H         1 UNK         0.2946 
    123 H123      -80.9456   28.0023  -75.1451 H         1 UNK         0.1144 
    124 H124      -83.3981   28.2698  -74.8826 H         1 UNK         0.0793 
    125 H125      -83.6778   26.6823  -75.6006 H         1 UNK         0.0793 
    126 H126      -83.0037   27.9858  -76.5693 H         1 UNK         0.0793 
    127 H127      -82.5044   26.3527  -73.4281 H         1 UNK         0.2896 
@<TRIPOS>BOND
     1    1    2 1    
     2    1   67 1    
     3    1   68 1    
     4    1   69 1    
     5    2    3 2    
     6    2    4 am   BACKBONE|DICT|INTERRES
     7    4    5 1    
     8    4   70 1    
     9    5    6 1    
    10    5   65 1    
    11    5   71 1    
    12    6    7 1    
    13    6   72 1    
    14    6   73 1    
    15    7    8 1    
    16    8    9 1    
    17    8   74 1    
    18    8   75 1    
    19    9   10 ar   
    20    9   14 ar   
    21   10   11 ar   
    22   10   76 1    
    23   11   12 ar   
    24   11   48 1    
    25   12   13 ar   
    26   12   77 1    
    27   13   14 ar   
    28   13   15 1    
    29   14   78 1    
    30   15   16 1    
    31   15   79 1    
    32   15   80 1    
    33   16   17 1    
    34   17   18 1    
    35   17   81 1    
    36   17   82 1    
    37   18   19 1    
    38   18   22 1    
    39   18   83 1    
    40   19   20 am   BACKBONE|DICT|INTERRES
    41   19   21 2    
    42   20   84 1    
    43   20   85 1    
    44   22   23 am   BACKBONE|DICT|INTERRES
    45   22   86 1    
    46   23   24 2    
    47   23   25 1    
    48   25   26 1    
    49   25   27 1    
    50   25   87 1    
    51   26   88 1    
    52   26   89 1    
    53   26   90 1    
    54   27   28 am   BACKBONE|DICT|INTERRES
    55   27   91 1    
    56   28   29 2    
    57   28   30 1    
    58   30   31 1    
    59   30   32 1    
    60   30   92 1    
    61   31   93 1    
    62   31   94 1    
    63   31   95 1    
    64   32   33 am   BACKBONE|DICT|INTERRES
    65   32   96 1    
    66   33   34 2    
    67   33   35 1    
    68   35   36 1    
    69   35   37 1    
    70   35   97 1    
    71   36   98 1    
    72   36   99 1    
    73   36  100 1    
    74   37   38 am   BACKBONE|DICT|INTERRES
    75   37  101 1    
    76   38   39 2    
    77   38   40 1    
    78   40   41 1    
    79   40   42 1    
    80   40  102 1    
    81   41  103 1    
    82   41  104 1    
    83   41  105 1    
    84   42   43 am   BACKBONE|DICT|INTERRES
    85   42  106 1    
    86   43   44 2    
    87   43   45 1    
    88   45   46 1    
    89   45   49 1    
    90   45  107 1    
    91   46   47 1    
    92   46  108 1    
    93   46  109 1    
    94   47   48 1    
    95   48  110 1    
    96   48  111 1    
    97   49   50 am   BACKBONE|DICT|INTERRES
    98   49  112 1    
    99   50   51 2    
   100   50   52 1    
   101   52   53 1    
   102   52   54 1    
   103   52  113 1    
   104   53  114 1    
   105   53  115 1    
   106   53  116 1    
   107   54   55 am   BACKBONE|DICT|INTERRES
   108   54  117 1    
   109   55   56 2    
   110   55   57 1    
   111   57   58 1    
   112   57   59 1    
   113   57  118 1    
   114   58  119 1    
   115   58  120 1    
   116   58  121 1    
   117   59   60 am   BACKBONE|DICT|INTERRES
   118   59  122 1    
   119   60   61 2    
   120   60   62 1    
   121   62   63 1    
   122   62   64 1    
   123   62  123 1    
   124   63  124 1    
   125   63  125 1    
   126   63  126 1    
   127   64   65 am   BACKBONE|DICT|INTERRES
   128   64  127 1    
   129   65   66 2    
@<TRIPOS>SUBSTRUCTURE
     1 UNK         1 GROUP             0       ****    0 ROOT    
