@<TRIPOS>MOLECULE
3R135
127   129    1
SMALL
USER_CHARGES


@<TRIPOS>ATOM
      1 CA        -84.7392   25.5891  -70.4524 C.3       0 UNK        -0.1998 
      2 C         -83.7430   26.0436  -71.5084 C.2       0 UNK         0.4909 
      3 O         -84.0821   26.8702  -72.3555 O.2       0 UNK        -0.5240 
      4 N         -82.5158   25.5080  -71.4669 N.am      1 UNK        -0.4739 
      5 CA        -81.4264   25.8385  -72.3970 C.3       1 UNK         0.0864 
      6 C6        -80.0390   25.4683  -71.8157 C.3       11 UNK        -0.0881 
      7 S7        -79.6714   26.3194  -70.2433 S.3       11 UNK        -0.2682 
      8 C8        -77.9221   26.8026  -70.4797 C.3       11 UNK         0.0289 
      9 C9        -77.6661   28.0459  -71.3377 C.ar      11 UNK        -0.0687 
     10 C10       -78.6694   28.6868  -72.0780 C.ar      11 UNK        -0.0823 
     11 C11       -78.3782   29.8086  -72.8591 C.ar      11 UNK        -0.0830 
     12 C12       -77.0782   30.3178  -72.8746 C.ar      11 UNK        -0.1021 
     13 C13       -76.0658   29.6935  -72.1433 C.ar      11 UNK        -0.0753 
     14 C14       -76.3637   28.5571  -71.3854 C.ar      11 UNK        -0.0933 
     15 C15       -74.6552   30.2571  -72.1767 C.3       11 UNK         0.0166 
     16 S16       -73.7484   29.6611  -73.6338 S.3       11 UNK        -0.2615 
     17 C17       -72.4238   30.9137  -73.7257 C.3       11 UNK        -0.0865 
     18 CA        -71.5681   30.7829  -75.0190 C.3       10 UNK         0.0862 
     19 C         -70.6501   32.0187  -75.2756 C.2       10 UNK         0.5551 
     20 N         -69.5167   31.8655  -75.9500 N.am      10 UNK        -0.7319 
     21 O         -70.9803   33.1382  -74.8912 O.2       10 UNK        -0.5018 
     22 N         -70.8959   29.4745  -75.1222 N.am      10 UNK        -0.4509 
     23 C         -69.9077   29.0361  -74.3288 C.2       10 UNK         0.4899 
     24 O         -69.4108   29.6999  -73.4168 O.2       10 UNK        -0.4839 
     25 CA        -69.3945   27.6107  -74.6105 C.3       9 UNK         0.0222 
     26 CB        -68.2755   27.1689  -73.6432 C.3       9 UNK        -0.1966 
     27 N         -70.4737   26.6180  -74.6363 N.am      9 UNK        -0.4218 
     28 C         -71.3567   26.3273  -73.6696 C.2       9 UNK         0.5020 
     29 O         -71.3614   26.8631  -72.5598 O.2       9 UNK        -0.5274 
     30 CA        -72.4006   25.2370  -74.0005 C.3       8 UNK         0.0270 
     31 CB        -73.4646   25.0863  -72.8961 C.3       8 UNK        -0.1976 
     32 N         -73.0776   25.4526  -75.2854 N.am      8 UNK        -0.4313 
     33 C         -72.5408   25.2603  -76.4984 C.2       8 UNK         0.5041 
     34 O         -71.3876   24.8625  -76.6726 O.2       8 UNK        -0.5577 
     35 CA        -73.4034   25.6096  -77.7219 C.3       7 UNK         0.0284 
     36 CB        -74.3069   24.4274  -78.1032 C.3       7 UNK        -0.1958 
     37 N         -74.2201   26.8106  -77.5376 N.am      7 UNK        -0.4454 
     38 C         -73.7539   28.0505  -77.3385 C.2       7 UNK         0.5089 
     39 O         -72.5544   28.3276  -77.2872 O.2       7 UNK        -0.5125 
     40 CA        -74.7908   29.1752  -77.1474 C.3       6 UNK         0.0408 
     41 CB        -75.2136   29.7866  -78.4967 C.3       6 UNK        -0.1791 
     42 N         -75.9456   28.7906  -76.3225 N.am      6 UNK        -0.4762 
     43 C         -76.9432   27.9437  -76.6162 C.2       6 UNK         0.5007 
     44 O         -77.0849   27.3981  -77.7127 O.2       6 UNK        -0.5032 
     45 CA        -77.9029   27.5909  -75.4594 C.3       5 UNK         0.0783 
     46 C46       -79.2726   28.3072  -75.5818 C.3       11 UNK        -0.0857 
     47 S47       -79.1672   30.1300  -75.4924 S.3       11 UNK        -0.2512 
     48 C48       -79.4572   30.4472  -73.7205 C.3       11 UNK         0.0225 
     49 N         -78.0562   26.1356  -75.3281 N.am      5 UNK        -0.4615 
     50 C         -77.0380   25.2901  -75.1037 C.2       4 UNK         0.5053 
     51 O         -75.8795   25.6647  -74.9248 O.2       4 UNK        -0.5105 
     52 CA        -77.3251   23.7790  -75.0748 C.3       4 UNK         0.0263 
     53 CB        -77.4252   23.2646  -73.6309 C.3       4 UNK        -0.1981 
     54 N         -78.5204   23.3755  -75.8153 N.am      4 UNK        -0.4224 
     55 C         -78.6379   23.3456  -77.1482 C.2       3 UNK         0.4895 
     56 O         -77.7362   23.6794  -77.9163 O.2       3 UNK        -0.5091 
     57 CA        -79.9758   22.8563  -77.7422 C.3       3 UNK         0.0250 
     58 CB        -79.9287   21.3423  -78.0282 C.3       3 UNK        -0.1996 
     59 N         -81.1778   23.2210  -76.9735 N.am      3 UNK        -0.4254 
     60 C         -81.5451   22.8242  -75.7465 C.2       2 UNK         0.5004 
     61 O         -80.9085   22.0281  -75.0529 O.2       2 UNK        -0.5226 
     62 CA        -82.8024   23.4881  -75.1610 C.3       2 UNK         0.0269 
     63 CB        -83.8990   22.4448  -74.8912 C.3       2 UNK        -0.1926 
     64 N         -82.5039   24.2099  -73.9200 N.am      2 UNK        -0.4687 
     65 C         -81.6078   25.2017  -73.7928 C.2       1 UNK         0.5165 
     66 O         -80.9233   25.6173  -74.7288 O.2       1 UNK        -0.5079 
     67 H67       -85.6080   25.1339  -70.9272 H         1 UNK         0.0900 
     68 H68       -85.0790   26.4423  -69.8661 H         1 UNK         0.0900 
     69 H69       -84.3048   24.8599  -69.7688 H         1 UNK         0.0900 
     70 H70       -82.2820   24.8512  -70.7354 H         1 UNK         0.2959 
     71 H71       -81.4481   26.9177  -72.5602 H         1 UNK         0.1079 
     72 H72       -79.9723   24.3930  -71.6409 H         1 UNK         0.0837 
     73 H73       -79.2538   25.7154  -72.5331 H         1 UNK         0.0837 
     74 H74       -77.3738   25.9589  -70.9020 H         1 UNK         0.0685 
     75 H75       -77.4974   26.9769  -69.4899 H         1 UNK         0.0685 
     76 H76       -79.6809   28.3138  -72.0682 H         1 UNK         0.1434 
     77 H77       -76.8495   31.1873  -73.4762 H         1 UNK         0.1329 
     78 H78       -75.5764   28.0706  -70.8254 H         1 UNK         0.1335 
     79 H79       -74.1071   29.9817  -71.2743 H         1 UNK         0.0680 
     80 H80       -74.7037   31.3470  -72.1884 H         1 UNK         0.0680 
     81 H81       -71.7970   30.8404  -72.8357 H         1 UNK         0.1032 
     82 H82       -72.8982   31.8957  -73.6839 H         1 UNK         0.1032 
     83 H83       -72.2607   30.8085  -75.8593 H         1 UNK         0.0461 
     84 H84       -68.9310   32.6670  -76.1236 H         1 UNK         0.3453 
     85 H85       -69.2416   30.9551  -76.2819 H         1 UNK         0.3453 
     86 H86       -71.2592   28.8671  -75.8503 H         1 UNK         0.2984 
     87 H87       -68.9716   27.6293  -75.6159 H         1 UNK         0.0554 
     88 H88       -67.4272   27.8529  -73.6887 H         1 UNK         0.0847 
     89 H89       -67.9033   26.1756  -73.8936 H         1 UNK         0.0847 
     90 H90       -68.6194   27.1469  -72.6084 H         1 UNK         0.0847 
     91 H91       -70.5810   26.0959  -75.5043 H         1 UNK         0.3141 
     92 H92       -71.8561   24.2925  -74.0608 H         1 UNK         0.0743 
     93 H93       -73.0055   24.8620  -71.9325 H         1 UNK         0.0784 
     94 H94       -74.0498   25.9996  -72.7771 H         1 UNK         0.0784 
     95 H95       -74.1546   24.2731  -73.1203 H         1 UNK         0.0784 
     96 H96       -74.0509   25.7504  -75.2300 H         1 UNK         0.3213 
     97 H97       -72.7249   25.8023  -78.5556 H         1 UNK         0.0855 
     98 H98       -75.0245   24.1986  -77.3154 H         1 UNK         0.0814 
     99 H99       -73.7183   23.5263  -78.2804 H         1 UNK         0.0814 
    100 H100      -74.8688   24.6322  -79.0147 H         1 UNK         0.0814 
    101 H101      -75.2282   26.6976  -77.5771 H         1 UNK         0.3105 
    102 H102      -74.2944   29.9659  -76.5860 H         1 UNK         0.0547 
    103 H103      -75.6720   29.0511  -79.1578 H         1 UNK         0.0837 
    104 H104      -75.9228   30.6025  -78.3578 H         1 UNK         0.0837 
    105 H105      -74.3491   30.1939  -79.0222 H         1 UNK         0.0837 
    106 H106      -75.9051   29.1464  -75.3761 H         1 UNK         0.3020 
    107 H107      -77.4294   27.9136  -74.5316 H         1 UNK         0.1245 
    108 H108      -79.9388   27.9750  -74.7861 H         1 UNK         0.0781 
    109 H109      -79.7638   28.0322  -76.5169 H         1 UNK         0.0781 
    110 H110      -79.4664   31.5245  -73.5488 H         1 UNK         0.0836 
    111 H111      -80.4487   30.0847  -73.4445 H         1 UNK         0.0836 
    112 H112      -78.9949   25.7674  -75.4348 H         1 UNK         0.3022 
    113 H113      -76.4662   23.2896  -75.5386 H         1 UNK         0.0747 
    114 H114      -76.5872   23.6127  -73.0255 H         1 UNK         0.0793 
    115 H115      -77.4141   22.1749  -73.6014 H         1 UNK         0.0793 
    116 H116      -78.3411   23.5977  -73.1479 H         1 UNK         0.0793 
    117 H117      -79.3084   23.0251  -75.2774 H         1 UNK         0.3047 
    118 H118      -80.0824   23.3638  -78.7025 H         1 UNK         0.0822 
    119 H119      -79.0961   21.0982  -78.6894 H         1 UNK         0.0807 
    120 H120      -80.8411   21.0022  -78.5179 H         1 UNK         0.0807 
    121 H121      -79.7981   20.7572  -77.1174 H         1 UNK         0.0807 
    122 H122      -81.7568   23.9180  -77.4220 H         1 UNK         0.2946 
    123 H123      -83.1897   24.2146  -75.8788 H         1 UNK         0.1144 
    124 H124      -84.1526   21.9011  -75.8024 H         1 UNK         0.0793 
    125 H125      -84.8144   22.9138  -74.5297 H         1 UNK         0.0793 
    126 H126      -83.5827   21.7089  -74.1505 H         1 UNK         0.0793 
    127 H127      -83.0047   23.9199  -73.0932 H         1 UNK         0.2896 
@<TRIPOS>BOND
     1    1    2 1    
     2    1   67 1    
     3    1   68 1    
     4    1   69 1    
     5    2    3 2    
     6    2    4 am   BACKBONE|DICT|INTERRES
     7    4    5 1    
     8    4   70 1    
     9    5    6 1    
    10    5   65 1    
    11    5   71 1    
    12    6    7 1    
    13    6   72 1    
    14    6   73 1    
    15    7    8 1    
    16    8    9 1    
    17    8   74 1    
    18    8   75 1    
    19    9   10 ar   
    20    9   14 ar   
    21   10   11 ar   
    22   10   76 1    
    23   11   12 ar   
    24   11   48 1    
    25   12   13 ar   
    26   12   77 1    
    27   13   14 ar   
    28   13   15 1    
    29   14   78 1    
    30   15   16 1    
    31   15   79 1    
    32   15   80 1    
    33   16   17 1    
    34   17   18 1    
    35   17   81 1    
    36   17   82 1    
    37   18   19 1    
    38   18   22 1    
    39   18   83 1    
    40   19   20 am   BACKBONE|DICT|INTERRES
    41   19   21 2    
    42   20   84 1    
    43   20   85 1    
    44   22   23 am   BACKBONE|DICT|INTERRES
    45   22   86 1    
    46   23   24 2    
    47   23   25 1    
    48   25   26 1    
    49   25   27 1    
    50   25   87 1    
    51   26   88 1    
    52   26   89 1    
    53   26   90 1    
    54   27   28 am   BACKBONE|DICT|INTERRES
    55   27   91 1    
    56   28   29 2    
    57   28   30 1    
    58   30   31 1    
    59   30   32 1    
    60   30   92 1    
    61   31   93 1    
    62   31   94 1    
    63   31   95 1    
    64   32   33 am   BACKBONE|DICT|INTERRES
    65   32   96 1    
    66   33   34 2    
    67   33   35 1    
    68   35   36 1    
    69   35   37 1    
    70   35   97 1    
    71   36   98 1    
    72   36   99 1    
    73   36  100 1    
    74   37   38 am   BACKBONE|DICT|INTERRES
    75   37  101 1    
    76   38   39 2    
    77   38   40 1    
    78   40   41 1    
    79   40   42 1    
    80   40  102 1    
    81   41  103 1    
    82   41  104 1    
    83   41  105 1    
    84   42   43 am   BACKBONE|DICT|INTERRES
    85   42  106 1    
    86   43   44 2    
    87   43   45 1    
    88   45   46 1    
    89   45   49 1    
    90   45  107 1    
    91   46   47 1    
    92   46  108 1    
    93   46  109 1    
    94   47   48 1    
    95   48  110 1    
    96   48  111 1    
    97   49   50 am   BACKBONE|DICT|INTERRES
    98   49  112 1    
    99   50   51 2    
   100   50   52 1    
   101   52   53 1    
   102   52   54 1    
   103   52  113 1    
   104   53  114 1    
   105   53  115 1    
   106   53  116 1    
   107   54   55 am   BACKBONE|DICT|INTERRES
   108   54  117 1    
   109   55   56 2    
   110   55   57 1    
   111   57   58 1    
   112   57   59 1    
   113   57  118 1    
   114   58  119 1    
   115   58  120 1    
   116   58  121 1    
   117   59   60 am   BACKBONE|DICT|INTERRES
   118   59  122 1    
   119   60   61 2    
   120   60   62 1    
   121   62   63 1    
   122   62   64 1    
   123   62  123 1    
   124   63  124 1    
   125   63  125 1    
   126   63  126 1    
   127   64   65 am   BACKBONE|DICT|INTERRES
   128   64  127 1    
   129   65   66 2    
@<TRIPOS>SUBSTRUCTURE
     1 UNK         1 GROUP             0       ****    0 ROOT    
