@<TRIPOS>MOLECULE
3R135
127   129    1
SMALL
USER_CHARGES


@<TRIPOS>ATOM
      1 CA        -85.2231   26.9190  -71.9064 C.3       0 UNK        -0.1998 
      2 C         -84.9919   27.5167  -73.2859 C.2       0 UNK         0.4909 
      3 O         -85.9347   27.6370  -74.0685 O.2       0 UNK        -0.5240 
      4 N         -83.7423   27.8891  -73.5919 N.am      1 UNK        -0.4739 
      5 CA        -83.3296   28.4669  -74.8790 C.3       1 UNK         0.0864 
      6 C6        -82.0060   29.2615  -74.7407 C.3       11 UNK        -0.0881 
      7 S7        -80.5734   28.2515  -74.2119 S.3       11 UNK        -0.2682 
      8 C8        -79.9618   29.1995  -72.7863 C.3       11 UNK         0.0289 
      9 C9        -78.5270   28.8169  -72.4613 C.ar      11 UNK        -0.0687 
     10 C10       -78.2534   27.7479  -71.6034 C.ar      11 UNK        -0.0823 
     11 C11       -76.9321   27.3914  -71.3149 C.ar      11 UNK        -0.0830 
     12 C12       -75.8820   28.1128  -71.8888 C.ar      11 UNK        -0.1021 
     13 C13       -76.1440   29.1838  -72.7476 C.ar      11 UNK        -0.0753 
     14 C14       -77.4683   29.5325  -73.0276 C.ar      11 UNK        -0.0933 
     15 C15       -75.0031   29.9389  -73.4107 C.3       11 UNK         0.0166 
     16 S16       -74.2405   31.1519  -72.2891 S.3       11 UNK        -0.2615 
     17 C17       -72.7687   30.2424  -71.6999 C.3       11 UNK        -0.0865 
     18 CA        -71.5013   30.5814  -72.5310 C.3       10 UNK         0.0862 
     19 C         -70.2083   30.0073  -71.8787 C.2       10 UNK         0.5551 
     20 N         -69.3555   29.2809  -72.5930 N.am      10 UNK        -0.7319 
     21 O         -69.9657   30.2369  -70.6965 O.2       10 UNK        -0.5018 
     22 N         -71.6724   30.1948  -73.9395 N.am      10 UNK        -0.4509 
     23 C         -71.1804   30.8546  -74.9934 C.2       10 UNK         0.4899 
     24 O         -70.5613   31.9167  -74.9122 O.2       10 UNK        -0.4839 
     25 CA        -71.4240   30.2009  -76.3702 C.3       9 UNK         0.0222 
     26 CB        -70.4532   30.7152  -77.4542 C.3       9 UNK        -0.1966 
     27 N         -71.4210   28.7305  -76.3313 N.am      9 UNK        -0.4218 
     28 C         -70.4221   27.9344  -75.9093 C.2       9 UNK         0.5020 
     29 O         -69.3589   28.3609  -75.4563 O.2       9 UNK        -0.5274 
     30 CA        -70.6410   26.4100  -75.9532 C.3       8 UNK         0.0270 
     31 CB        -70.5898   25.8145  -74.5350 C.3       8 UNK        -0.1976 
     32 N         -71.9026   26.0288  -76.5931 N.am      8 UNK        -0.4313 
     33 C         -72.0849   25.9445  -77.9196 C.2       8 UNK         0.5041 
     34 O         -71.1838   26.1185  -78.7407 O.2       8 UNK        -0.5577 
     35 CA        -73.5055   25.6357  -78.4294 C.3       7 UNK         0.0284 
     36 CB        -73.5980   24.1808  -78.9166 C.3       7 UNK        -0.1958 
     37 N         -74.5565   25.8848  -77.4380 N.am      7 UNK        -0.4454 
     38 C         -74.9170   27.1004  -76.9970 C.2       7 UNK         0.5089 
     39 O         -74.3946   28.1470  -77.3820 O.2       7 UNK        -0.5125 
     40 CA        -75.9891   27.1536  -75.8933 C.3       6 UNK         0.0408 
     41 CB        -77.3902   27.2908  -76.5039 C.3       6 UNK        -0.1791 
     42 N         -75.9453   25.9955  -74.9937 N.am      6 UNK        -0.4762 
     43 C         -74.8928   25.6895  -74.2160 C.2       6 UNK         0.5007 
     44 O         -73.8919   26.4032  -74.1369 O.2       6 UNK        -0.5032 
     45 CA        -74.8956   24.3407  -73.4640 C.3       5 UNK         0.0783 
     46 C46       -74.9759   24.5099  -71.9231 C.3       11 UNK        -0.0857 
     47 S47       -76.6718   24.6378  -71.2514 S.3       11 UNK        -0.2512 
     48 C48       -76.6448   26.2317  -70.3759 C.3       11 UNK         0.0225 
     49 N         -75.8745   23.3756  -73.9739 N.am      5 UNK        -0.4615 
     50 C         -75.8653   22.8242  -75.1939 C.2       4 UNK         0.5053 
     51 O         -74.9911   23.0417  -76.0321 O.2       4 UNK        -0.5105 
     52 CA        -77.0548   21.9166  -75.5550 C.3       4 UNK         0.0263 
     53 CB        -76.7156   20.4470  -75.2601 C.3       4 UNK        -0.1981 
     54 N         -78.3061   22.2760  -74.8737 N.am      4 UNK        -0.4224 
     55 C         -78.9471   23.4434  -75.0246 C.2       3 UNK         0.4895 
     56 O         -78.5308   24.3668  -75.7266 O.2       3 UNK        -0.5091 
     57 CA        -80.2365   23.6302  -74.2125 C.3       3 UNK         0.0250 
     58 CB        -79.9327   24.3186  -72.8729 C.3       3 UNK        -0.1996 
     59 N         -81.2022   24.4449  -74.9467 N.am      3 UNK        -0.4254 
     60 C         -81.9988   23.9922  -75.9256 C.2       2 UNK         0.5004 
     61 O         -82.0089   22.8193  -76.3038 O.2       2 UNK        -0.5226 
     62 CA        -82.9660   25.0070  -76.5636 C.3       2 UNK         0.0269 
     63 CB        -84.3180   24.3743  -76.9456 C.3       2 UNK        -0.1926 
     64 N         -83.1966   26.1380  -75.6632 N.am      2 UNK        -0.4687 
     65 C         -83.2426   27.4269  -76.0205 C.2       1 UNK         0.5165 
     66 O         -83.1936   27.8122  -77.1898 O.2       1 UNK        -0.5079 
     67 H67       -84.3036   26.8699  -71.3233 H         1 UNK         0.0900 
     68 H68       -85.6217   25.9090  -71.9970 H         1 UNK         0.0900 
     69 H69       -85.9432   27.5213  -71.3531 H         1 UNK         0.0900 
     70 H70       -83.0031   27.7737  -72.9128 H         1 UNK         0.2959 
     71 H71       -84.1019   29.1773  -75.1833 H         1 UNK         0.1079 
     72 H72       -82.1561   30.0799  -74.0350 H         1 UNK         0.0837 
     73 H73       -81.7511   29.7427  -75.6871 H         1 UNK         0.0837 
     74 H74       -80.6092   29.0241  -71.9259 H         1 UNK         0.0685 
     75 H75       -80.0148   30.2676  -73.0033 H         1 UNK         0.0685 
     76 H76       -79.0692   27.1875  -71.1676 H         1 UNK         0.1434 
     77 H77       -74.8603   27.8308  -71.6794 H         1 UNK         0.1329 
     78 H78       -77.6772   30.3540  -73.6992 H         1 UNK         0.1335 
     79 H79       -74.2598   29.2297  -73.7752 H         1 UNK         0.0680 
     80 H80       -75.3655   30.4682  -74.2933 H         1 UNK         0.0680 
     81 H81       -72.6230   30.5169  -70.6533 H         1 UNK         0.1032 
     82 H82       -72.9572   29.1683  -71.7022 H         1 UNK         0.1032 
     83 H83       -71.3778   31.6653  -72.4899 H         1 UNK         0.0461 
     84 H84       -68.5243   28.9275  -72.1470 H         1 UNK         0.3453 
     85 H85       -69.5077   29.1020  -73.5792 H         1 UNK         0.3453 
     86 H86       -72.1365   29.3145  -74.1032 H         1 UNK         0.2984 
     87 H87       -72.4329   30.4916  -76.6668 H         1 UNK         0.0554 
     88 H88       -70.6583   30.2553  -78.4209 H         1 UNK         0.0847 
     89 H89       -69.4139   30.5071  -77.1974 H         1 UNK         0.0847 
     90 H90       -70.5459   31.7941  -77.5847 H         1 UNK         0.0847 
     91 H91       -72.2682   28.2905  -76.6715 H         1 UNK         0.3141 
     92 H92       -69.8149   25.9820  -76.5250 H         1 UNK         0.0743 
     93 H93       -69.6073   25.9670  -74.0860 H         1 UNK         0.0784 
     94 H94       -71.3190   26.2782  -73.8708 H         1 UNK         0.0784 
     95 H95       -70.7758   24.7405  -74.5448 H         1 UNK         0.0784 
     96 H96       -72.6985   25.9022  -75.9799 H         1 UNK         0.3213 
     97 H97       -73.6915   26.2918  -79.2826 H         1 UNK         0.0855 
     98 H98       -73.3791   23.4723  -78.1171 H         1 UNK         0.0814 
     99 H99       -72.8833   23.9933  -79.7192 H         1 UNK         0.0814 
    100 H100      -74.5898   23.9521  -79.3071 H         1 UNK         0.0814 
    101 H101      -74.9986   25.0688  -77.0306 H         1 UNK         0.3105 
    102 H102      -75.7988   28.0440  -75.2961 H         1 UNK         0.0547 
    103 H103      -77.6319   26.4514  -77.1567 H         1 UNK         0.0837 
    104 H104      -78.1543   27.3431  -75.7287 H         1 UNK         0.0837 
    105 H105      -77.4687   28.2011  -77.0993 H         1 UNK         0.0837 
    106 H106      -76.7368   25.3624  -75.0300 H         1 UNK         0.3020 
    107 H107      -73.9126   23.9134  -73.6769 H         1 UNK         0.1245 
    108 H108      -74.3683   25.3521  -71.5871 H         1 UNK         0.0781 
    109 H109      -74.5251   23.6343  -71.4535 H         1 UNK         0.0781 
    110 H110      -75.6891   26.3676  -69.8674 H         1 UNK         0.0836 
    111 H111      -77.4001   26.2077  -69.5890 H         1 UNK         0.0836 
    112 H112      -76.6389   23.1624  -73.3495 H         1 UNK         0.3022 
    113 H113      -77.2239   22.0196  -76.6291 H         1 UNK         0.0747 
    114 H114      -77.5083   19.7800  -75.5996 H         1 UNK         0.0793 
    115 H115      -75.8012   20.1472  -75.7746 H         1 UNK         0.0793 
    116 H116      -76.5615   20.2730  -74.1944 H         1 UNK         0.0793 
    117 H117      -78.7073   21.5745  -74.2674 H         1 UNK         0.3047 
    118 H118      -80.6816   22.6529  -74.0120 H         1 UNK         0.0822 
    119 H119      -79.2998   23.6878  -72.2487 H         1 UNK         0.0807 
    120 H120      -80.8441   24.5151  -72.3081 H         1 UNK         0.0807 
    121 H121      -79.4140   25.2685  -73.0142 H         1 UNK         0.0807 
    122 H122      -81.1827   25.4378  -74.7627 H         1 UNK         0.2946 
    123 H123      -82.4762   25.3561  -77.4757 H         1 UNK         0.1144 
    124 H124      -84.1854   23.5595  -77.6584 H         1 UNK         0.0793 
    125 H125      -84.9786   25.1050  -77.4126 H         1 UNK         0.0793 
    126 H126      -84.8311   23.9680  -76.0733 H         1 UNK         0.0793 
    127 H127      -83.2704   25.9189  -74.6795 H         1 UNK         0.2896 
@<TRIPOS>BOND
     1    1    2 1    
     2    1   67 1    
     3    1   68 1    
     4    1   69 1    
     5    2    3 2    
     6    2    4 am   BACKBONE|DICT|INTERRES
     7    4    5 1    
     8    4   70 1    
     9    5    6 1    
    10    5   65 1    
    11    5   71 1    
    12    6    7 1    
    13    6   72 1    
    14    6   73 1    
    15    7    8 1    
    16    8    9 1    
    17    8   74 1    
    18    8   75 1    
    19    9   10 ar   
    20    9   14 ar   
    21   10   11 ar   
    22   10   76 1    
    23   11   12 ar   
    24   11   48 1    
    25   12   13 ar   
    26   12   77 1    
    27   13   14 ar   
    28   13   15 1    
    29   14   78 1    
    30   15   16 1    
    31   15   79 1    
    32   15   80 1    
    33   16   17 1    
    34   17   18 1    
    35   17   81 1    
    36   17   82 1    
    37   18   19 1    
    38   18   22 1    
    39   18   83 1    
    40   19   20 am   BACKBONE|DICT|INTERRES
    41   19   21 2    
    42   20   84 1    
    43   20   85 1    
    44   22   23 am   BACKBONE|DICT|INTERRES
    45   22   86 1    
    46   23   24 2    
    47   23   25 1    
    48   25   26 1    
    49   25   27 1    
    50   25   87 1    
    51   26   88 1    
    52   26   89 1    
    53   26   90 1    
    54   27   28 am   BACKBONE|DICT|INTERRES
    55   27   91 1    
    56   28   29 2    
    57   28   30 1    
    58   30   31 1    
    59   30   32 1    
    60   30   92 1    
    61   31   93 1    
    62   31   94 1    
    63   31   95 1    
    64   32   33 am   BACKBONE|DICT|INTERRES
    65   32   96 1    
    66   33   34 2    
    67   33   35 1    
    68   35   36 1    
    69   35   37 1    
    70   35   97 1    
    71   36   98 1    
    72   36   99 1    
    73   36  100 1    
    74   37   38 am   BACKBONE|DICT|INTERRES
    75   37  101 1    
    76   38   39 2    
    77   38   40 1    
    78   40   41 1    
    79   40   42 1    
    80   40  102 1    
    81   41  103 1    
    82   41  104 1    
    83   41  105 1    
    84   42   43 am   BACKBONE|DICT|INTERRES
    85   42  106 1    
    86   43   44 2    
    87   43   45 1    
    88   45   46 1    
    89   45   49 1    
    90   45  107 1    
    91   46   47 1    
    92   46  108 1    
    93   46  109 1    
    94   47   48 1    
    95   48  110 1    
    96   48  111 1    
    97   49   50 am   BACKBONE|DICT|INTERRES
    98   49  112 1    
    99   50   51 2    
   100   50   52 1    
   101   52   53 1    
   102   52   54 1    
   103   52  113 1    
   104   53  114 1    
   105   53  115 1    
   106   53  116 1    
   107   54   55 am   BACKBONE|DICT|INTERRES
   108   54  117 1    
   109   55   56 2    
   110   55   57 1    
   111   57   58 1    
   112   57   59 1    
   113   57  118 1    
   114   58  119 1    
   115   58  120 1    
   116   58  121 1    
   117   59   60 am   BACKBONE|DICT|INTERRES
   118   59  122 1    
   119   60   61 2    
   120   60   62 1    
   121   62   63 1    
   122   62   64 1    
   123   62  123 1    
   124   63  124 1    
   125   63  125 1    
   126   63  126 1    
   127   64   65 am   BACKBONE|DICT|INTERRES
   128   64  127 1    
   129   65   66 2    
@<TRIPOS>SUBSTRUCTURE
     1 UNK         1 GROUP             0       ****    0 ROOT    
