@<TRIPOS>MOLECULE
3R135
127   129    1
SMALL
USER_CHARGES


@<TRIPOS>ATOM
      1 CA        -83.7615   28.9432  -71.8957 C.3       0 UNK        -0.1998 
      2 C         -82.5804   28.3983  -72.6836 C.2       0 UNK         0.4909 
      3 O         -81.9892   27.3983  -72.2763 O.2       0 UNK        -0.5240 
      4 N         -82.2386   29.0509  -73.8039 N.am      1 UNK        -0.4739 
      5 CA        -81.1427   28.7512  -74.7421 C.3       1 UNK         0.0864 
      6 C6        -79.7245   28.8058  -74.1103 C.3       11 UNK        -0.0881 
      7 S7        -79.2702   30.4807  -73.5305 S.3       11 UNK        -0.2682 
      8 C8        -79.4775   30.3878  -71.7194 C.3       11 UNK         0.0289 
      9 C9        -78.4850   29.4319  -71.0745 C.ar      11 UNK        -0.0687 
     10 C10       -78.8893   28.1430  -70.7216 C.ar      11 UNK        -0.0823 
     11 C11       -77.9724   27.2268  -70.2042 C.ar      11 UNK        -0.0830 
     12 C12       -76.6493   27.6228  -69.9888 C.ar      11 UNK        -0.1021 
     13 C13       -76.2320   28.9120  -70.3334 C.ar      11 UNK        -0.0753 
     14 C14       -77.1580   29.8184  -70.8621 C.ar      11 UNK        -0.0933 
     15 C15       -74.7686   29.2981  -70.1836 C.3       11 UNK         0.0166 
     16 S16       -73.8749   29.0969  -71.7599 S.3       11 UNK        -0.2615 
     17 C17       -74.2610   30.6803  -72.5910 C.3       11 UNK        -0.0865 
     18 CA        -73.1328   31.2100  -73.5141 C.3       10 UNK         0.0862 
     19 C         -71.8029   31.4891  -72.7485 C.2       10 UNK         0.5551 
     20 N         -70.6982   30.8184  -73.0592 N.am      10 UNK        -0.7319 
     21 O         -71.7745   32.3425  -71.8651 O.2       10 UNK        -0.5018 
     22 N         -72.9911   30.3833  -74.7210 N.am      10 UNK        -0.4509 
     23 C         -72.4137   30.7983  -75.8569 C.2       10 UNK         0.4899 
     24 O         -72.0451   31.9589  -76.0454 O.2       10 UNK        -0.4839 
     25 CA        -72.2168   29.7506  -76.9714 C.3       9 UNK         0.0222 
     26 CB        -71.0028   30.0687  -77.8698 C.3       9 UNK        -0.1966 
     27 N         -72.1496   28.3623  -76.4960 N.am      9 UNK        -0.4218 
     28 C         -71.2689   27.8330  -75.6294 C.2       9 UNK         0.5020 
     29 O         -70.3968   28.4926  -75.0603 O.2       9 UNK        -0.5274 
     30 CA        -71.3836   26.3279  -75.3150 C.3       8 UNK         0.0270 
     31 CB        -71.6458   26.1043  -73.8149 C.3       8 UNK        -0.1976 
     32 N         -72.4321   25.6616  -76.0958 N.am      8 UNK        -0.4313 
     33 C         -72.2545   25.1495  -77.3240 C.2       8 UNK         0.5041 
     34 O         -71.1613   25.1132  -77.8902 O.2       8 UNK        -0.5577 
     35 CA        -73.4915   24.6045  -78.0696 C.3       7 UNK         0.0284 
     36 CB        -73.5644   23.0752  -77.9323 C.3       7 UNK        -0.1958 
     37 N         -74.7685   25.1835  -77.6418 N.am      7 UNK        -0.4454 
     38 C         -75.0876   26.4853  -77.6791 C.2       7 UNK         0.5089 
     39 O         -74.3597   27.3531  -78.1595 O.2       7 UNK        -0.5125 
     40 CA        -76.3965   26.9027  -76.9843 C.3       6 UNK         0.0408 
     41 CB        -77.5626   26.9085  -77.9824 C.3       6 UNK        -0.1791 
     42 N         -76.7371   26.0608  -75.8320 N.am      6 UNK        -0.4762 
     43 C         -75.9626   25.8765  -74.7522 C.2       6 UNK         0.5007 
     44 O         -74.8646   26.4134  -74.6107 O.2       6 UNK        -0.5032 
     45 CA        -76.4611   24.8900  -73.6828 C.3       5 UNK         0.0783 
     46 C46       -77.4605   25.5614  -72.7156 C.3       11 UNK        -0.0857 
     47 S47       -77.5725   24.6254  -71.1462 S.3       11 UNK        -0.2512 
     48 C48       -78.3935   25.7808  -69.9888 C.3       11 UNK         0.0225 
     49 N         -77.0337   23.7038  -74.3177 N.am      5 UNK        -0.4615 
     50 C         -76.3369   22.6164  -74.6654 C.2       4 UNK         0.5053 
     51 O         -75.1377   22.4674  -74.4314 O.2       4 UNK        -0.5105 
     52 CA        -77.1011   21.5043  -75.4072 C.3       4 UNK         0.0263 
     53 CB        -77.6211   20.4565  -74.4099 C.3       4 UNK        -0.1981 
     54 N         -78.2197   21.9969  -76.2173 N.am      4 UNK        -0.4224 
     55 C         -78.0872   22.7706  -77.3036 C.2       3 UNK         0.4895 
     56 O         -77.0036   23.1512  -77.7476 O.2       3 UNK        -0.5091 
     57 CA        -79.3869   23.2332  -77.9873 C.3       3 UNK         0.0250 
     58 CB        -79.9094   22.1414  -78.9351 C.3       3 UNK        -0.1996 
     59 N         -80.4668   23.6534  -77.0810 N.am      3 UNK        -0.4254 
     60 C         -80.3535   24.5354  -76.0771 C.2       2 UNK         0.5004 
     61 O         -79.2799   24.9875  -75.6771 O.2       2 UNK        -0.5226 
     62 CA        -81.6532   24.9642  -75.3759 C.3       2 UNK         0.0269 
     63 CB        -81.9805   23.9940  -74.2296 C.3       2 UNK        -0.1926 
     64 N         -81.5550   26.3209  -74.8282 N.am      2 UNK        -0.4687 
     65 C         -81.3560   27.4420  -75.5341 C.2       1 UNK         0.5165 
     66 O         -81.3473   27.4763  -76.7658 O.2       1 UNK        -0.5079 
     67 H67       -84.1889   29.8314  -72.3606 H         1 UNK         0.0900 
     68 H68       -84.5435   28.1879  -71.8231 H         1 UNK         0.0900 
     69 H69       -83.4473   29.2067  -70.8862 H         1 UNK         0.0900 
     70 H70       -82.7954   29.8510  -74.0712 H         1 UNK         0.2959 
     71 H71       -81.1856   29.5469  -75.4882 H         1 UNK         0.1079 
     72 H72       -78.9731   28.5191  -74.8494 H         1 UNK         0.0837 
     73 H73       -79.6270   28.0780  -73.3069 H         1 UNK         0.0837 
     74 H74       -80.5022   30.0999  -71.4833 H         1 UNK         0.0685 
     75 H75       -79.3406   31.3856  -71.3003 H         1 UNK         0.0685 
     76 H76       -79.9093   27.8349  -70.9013 H         1 UNK         0.1434 
     77 H77       -75.9321   26.9059  -69.6126 H         1 UNK         0.1329 
     78 H78       -76.8402   30.8121  -71.1448 H         1 UNK         0.1335 
     79 H79       -74.6774   30.3209  -69.8157 H         1 UNK         0.0680 
     80 H80       -74.2918   28.6659  -69.4329 H         1 UNK         0.0680 
     81 H81       -75.1814   30.5522  -73.1633 H         1 UNK         0.1032 
     82 H82       -74.4889   31.4377  -71.8393 H         1 UNK         0.1032 
     83 H83       -73.4679   32.1910  -73.8573 H         1 UNK         0.0461 
     84 H84       -70.7086   30.1037  -73.7782 H         1 UNK         0.3453 
     85 H85       -69.8461   31.0136  -72.5591 H         1 UNK         0.3453 
     86 H86       -73.2497   29.4118  -74.6284 H         1 UNK         0.2984 
     87 H87       -73.1100   29.8095  -77.5945 H         1 UNK         0.0554 
     88 H88       -70.8936   29.3306  -78.6643 H         1 UNK         0.0847 
     89 H89       -70.0732   30.0886  -77.3000 H         1 UNK         0.0847 
     90 H90       -71.1112   31.0422  -78.3493 H         1 UNK         0.0847 
     91 H91       -72.8409   27.7464  -76.9127 H         1 UNK         0.3141 
     92 H92       -70.4187   25.8757  -75.5534 H         1 UNK         0.0743 
     93 H93       -72.5414   26.6247  -73.4750 H         1 UNK         0.0784 
     94 H94       -71.7625   25.0455  -73.5832 H         1 UNK         0.0784 
     95 H95       -70.8139   26.4767  -73.2157 H         1 UNK         0.0784 
     96 H96       -73.3668   25.6913  -75.6974 H         1 UNK         0.3213 
     97 H97       -73.3630   24.8484  -79.1261 H         1 UNK         0.0855 
     98 H98       -73.7370   22.7717  -76.8989 H         1 UNK         0.0814 
     99 H99       -72.6352   22.6070  -78.2600 H         1 UNK         0.0814 
    100 H100      -74.3670   22.6594  -78.5419 H         1 UNK         0.0814 
    101 H101      -75.4687   24.5349  -77.2972 H         1 UNK         0.3105 
    102 H102      -76.2622   27.9199  -76.6111 H         1 UNK         0.0547 
    103 H103      -77.3703   27.6030  -78.8011 H         1 UNK         0.0837 
    104 H104      -77.7163   25.9237  -78.4214 H         1 UNK         0.0837 
    105 H105      -78.4950   27.2151  -77.5075 H         1 UNK         0.0837 
    106 H106      -77.6491   25.6032  -75.8535 H         1 UNK         0.3020 
    107 H107      -75.5783   24.5995  -73.1074 H         1 UNK         0.1245 
    108 H108      -78.4539   25.6523  -73.1587 H         1 UNK         0.0781 
    109 H109      -77.1257   26.5776  -72.5083 H         1 UNK         0.0781 
    110 H110      -78.1645   25.4838  -68.9646 H         1 UNK         0.0836 
    111 H111      -79.4736   25.6740  -70.1032 H         1 UNK         0.0836 
    112 H112      -77.9996   23.7848  -74.6118 H         1 UNK         0.3022 
    113 H113      -76.3926   21.0154  -76.0795 H         1 UNK         0.0747 
    114 H114      -78.0916   19.6177  -74.9232 H         1 UNK         0.0793 
    115 H115      -76.8049   20.0505  -73.8105 H         1 UNK         0.0793 
    116 H116      -78.3507   20.8826  -73.7199 H         1 UNK         0.0793 
    117 H117      -79.1506   21.7445  -75.9185 H         1 UNK         0.3047 
    118 H118      -79.1346   24.1030  -78.5952 H         1 UNK         0.0822 
    119 H119      -80.2423   21.2571  -78.3903 H         1 UNK         0.0807 
    120 H120      -79.1316   21.8222  -79.6306 H         1 UNK         0.0807 
    121 H121      -80.7460   22.5017  -79.5342 H         1 UNK         0.0807 
    122 H122      -81.3893   23.3131  -77.3120 H         1 UNK         0.2946 
    123 H123      -82.4664   24.9532  -76.1046 H         1 UNK         0.1144 
    124 H124      -82.0949   22.9731  -74.5965 H         1 UNK         0.0793 
    125 H125      -82.9132   24.2657  -73.7348 H         1 UNK         0.0793 
    126 H126      -81.1927   23.9845  -73.4746 H         1 UNK         0.0793 
    127 H127      -81.5821   26.4178  -73.8162 H         1 UNK         0.2896 
@<TRIPOS>BOND
     1    1    2 1    
     2    1   67 1    
     3    1   68 1    
     4    1   69 1    
     5    2    3 2    
     6    2    4 am   BACKBONE|DICT|INTERRES
     7    4    5 1    
     8    4   70 1    
     9    5    6 1    
    10    5   65 1    
    11    5   71 1    
    12    6    7 1    
    13    6   72 1    
    14    6   73 1    
    15    7    8 1    
    16    8    9 1    
    17    8   74 1    
    18    8   75 1    
    19    9   10 ar   
    20    9   14 ar   
    21   10   11 ar   
    22   10   76 1    
    23   11   12 ar   
    24   11   48 1    
    25   12   13 ar   
    26   12   77 1    
    27   13   14 ar   
    28   13   15 1    
    29   14   78 1    
    30   15   16 1    
    31   15   79 1    
    32   15   80 1    
    33   16   17 1    
    34   17   18 1    
    35   17   81 1    
    36   17   82 1    
    37   18   19 1    
    38   18   22 1    
    39   18   83 1    
    40   19   20 am   BACKBONE|DICT|INTERRES
    41   19   21 2    
    42   20   84 1    
    43   20   85 1    
    44   22   23 am   BACKBONE|DICT|INTERRES
    45   22   86 1    
    46   23   24 2    
    47   23   25 1    
    48   25   26 1    
    49   25   27 1    
    50   25   87 1    
    51   26   88 1    
    52   26   89 1    
    53   26   90 1    
    54   27   28 am   BACKBONE|DICT|INTERRES
    55   27   91 1    
    56   28   29 2    
    57   28   30 1    
    58   30   31 1    
    59   30   32 1    
    60   30   92 1    
    61   31   93 1    
    62   31   94 1    
    63   31   95 1    
    64   32   33 am   BACKBONE|DICT|INTERRES
    65   32   96 1    
    66   33   34 2    
    67   33   35 1    
    68   35   36 1    
    69   35   37 1    
    70   35   97 1    
    71   36   98 1    
    72   36   99 1    
    73   36  100 1    
    74   37   38 am   BACKBONE|DICT|INTERRES
    75   37  101 1    
    76   38   39 2    
    77   38   40 1    
    78   40   41 1    
    79   40   42 1    
    80   40  102 1    
    81   41  103 1    
    82   41  104 1    
    83   41  105 1    
    84   42   43 am   BACKBONE|DICT|INTERRES
    85   42  106 1    
    86   43   44 2    
    87   43   45 1    
    88   45   46 1    
    89   45   49 1    
    90   45  107 1    
    91   46   47 1    
    92   46  108 1    
    93   46  109 1    
    94   47   48 1    
    95   48  110 1    
    96   48  111 1    
    97   49   50 am   BACKBONE|DICT|INTERRES
    98   49  112 1    
    99   50   51 2    
   100   50   52 1    
   101   52   53 1    
   102   52   54 1    
   103   52  113 1    
   104   53  114 1    
   105   53  115 1    
   106   53  116 1    
   107   54   55 am   BACKBONE|DICT|INTERRES
   108   54  117 1    
   109   55   56 2    
   110   55   57 1    
   111   57   58 1    
   112   57   59 1    
   113   57  118 1    
   114   58  119 1    
   115   58  120 1    
   116   58  121 1    
   117   59   60 am   BACKBONE|DICT|INTERRES
   118   59  122 1    
   119   60   61 2    
   120   60   62 1    
   121   62   63 1    
   122   62   64 1    
   123   62  123 1    
   124   63  124 1    
   125   63  125 1    
   126   63  126 1    
   127   64   65 am   BACKBONE|DICT|INTERRES
   128   64  127 1    
   129   65   66 2    
@<TRIPOS>SUBSTRUCTURE
     1 UNK         1 GROUP             0       ****    0 ROOT    
