@<TRIPOS>MOLECULE
3R135
127   129    1
SMALL
USER_CHARGES


@<TRIPOS>ATOM
      1 CA        -82.9153   27.4428  -70.1693 C.3       0 UNK        -0.1998 
      2 C         -83.4286   27.2564  -71.5892 C.2       0 UNK         0.4909 
      3 O         -84.4723   26.6347  -71.7884 O.2       0 UNK        -0.5240 
      4 N         -82.7002   27.7900  -72.5784 N.am      1 UNK        -0.4739 
      5 CA        -83.0177   27.6851  -74.0093 C.3       1 UNK         0.0864 
      6 C6        -82.3245   28.8049  -74.8298 C.3       11 UNK        -0.0881 
      7 S7        -80.5002   28.7175  -74.8082 S.3       11 UNK        -0.2682 
      8 C8        -80.0750   29.9452  -73.5411 C.3       11 UNK         0.0289 
      9 C9        -78.6987   29.6593  -72.9642 C.ar      11 UNK        -0.0687 
     10 C10       -78.5279   28.6055  -72.0606 C.ar      11 UNK        -0.0823 
     11 C11       -77.2750   28.3477  -71.4980 C.ar      11 UNK        -0.0830 
     12 C12       -76.1888   29.1551  -71.8455 C.ar      11 UNK        -0.1021 
     13 C13       -76.3452   30.2061  -72.7540 C.ar      11 UNK        -0.0753 
     14 C14       -77.6020   30.4524  -73.3141 C.ar      11 UNK        -0.0933 
     15 C15       -75.1675   31.1045  -73.0899 C.3       11 UNK         0.0166 
     16 S16       -74.4500   30.7184  -74.7169 S.3       11 UNK        -0.2615 
     17 C17       -72.9097   31.7015  -74.6049 C.3       11 UNK        -0.0865 
     18 CA        -71.6003   30.8630  -74.5235 C.3       10 UNK         0.0862 
     19 C         -70.4130   31.7798  -74.1046 C.2       10 UNK         0.5551 
     20 N         -69.8830   31.6643  -72.8936 N.am      10 UNK        -0.7319 
     21 O         -69.9781   32.6169  -74.8916 O.2       10 UNK        -0.5018 
     22 N         -71.7812   29.6191  -73.7533 N.am      10 UNK        -0.4509 
     23 C         -70.8858   28.6330  -73.6127 C.2       10 UNK         0.4899 
     24 O         -69.7059   28.7110  -73.9539 O.2       10 UNK        -0.4839 
     25 CA        -71.4227   27.3019  -73.0592 C.3       9 UNK         0.0222 
     26 CB        -72.5464   27.4755  -72.0188 C.3       9 UNK        -0.1966 
     27 N         -71.9209   26.5162  -74.1862 N.am      9 UNK        -0.4218 
     28 C         -71.1471   25.8098  -75.0234 C.2       9 UNK         0.5020 
     29 O         -69.9691   25.5241  -74.8026 O.2       9 UNK        -0.5274 
     30 CA        -71.7847   25.3787  -76.3550 C.3       8 UNK         0.0270 
     31 CB        -72.5822   24.0775  -76.1831 C.3       8 UNK        -0.1976 
     32 N         -72.6562   26.4092  -76.9232 N.am      8 UNK        -0.4313 
     33 C         -72.2801   27.6260  -77.3383 C.2       8 UNK         0.5041 
     34 O         -71.1079   28.0011  -77.3647 O.2       8 UNK        -0.5577 
     35 CA        -73.3807   28.6096  -77.7893 C.3       7 UNK         0.0284 
     36 CB        -73.5014   28.6388  -79.3256 C.3       7 UNK        -0.1958 
     37 N         -74.6940   28.4197  -77.1509 N.am      7 UNK        -0.4454 
     38 C         -75.5351   27.3834  -77.2606 C.2       7 UNK         0.5089 
     39 O         -75.3196   26.3925  -77.9604 O.2       7 UNK        -0.5125 
     40 CA        -76.8028   27.4315  -76.3924 C.3       6 UNK         0.0408 
     41 CB        -78.0482   27.3567  -77.2910 C.3       6 UNK        -0.1791 
     42 N         -76.8530   26.3383  -75.4160 N.am      6 UNK        -0.4762 
     43 C         -75.8886   25.9994  -74.5434 C.2       6 UNK         0.5007 
     44 O         -74.8019   26.5753  -74.4559 O.2       6 UNK        -0.5032 
     45 CA        -76.1639   24.7809  -73.6432 C.3       5 UNK         0.0783 
     46 C46       -77.0219   25.1485  -72.4075 C.3       11 UNK        -0.0857 
     47 S47       -76.0170   25.8950  -71.0816 S.3       11 UNK        -0.2512 
     48 C48       -77.1039   27.2265  -70.4819 C.3       11 UNK         0.0225 
     49 N         -76.7850   23.7045  -74.4190 N.am      5 UNK        -0.4615 
     50 C         -76.1670   22.5759  -74.7947 C.2       4 UNK         0.5053 
     51 O         -75.0043   22.3042  -74.4967 O.2       4 UNK        -0.5105 
     52 CA        -76.9704   21.5505  -75.6191 C.3       4 UNK         0.0263 
     53 CB        -77.3493   20.3430  -74.7454 C.3       4 UNK        -0.1981 
     54 N         -78.1882   22.1020  -76.2136 N.am      4 UNK        -0.4224 
     55 C         -78.2254   22.9214  -77.2734 C.2       3 UNK         0.4895 
     56 O         -77.2368   23.2239  -77.9399 O.2       3 UNK        -0.5091 
     57 CA        -79.5967   23.5221  -77.6397 C.3       3 UNK         0.0250 
     58 CB        -80.2282   22.7457  -78.8066 C.3       3 UNK        -0.1996 
     59 N         -80.5503   23.5763  -76.5228 N.am      3 UNK        -0.4254 
     60 C         -80.3712   24.2741  -75.3929 C.2       2 UNK         0.5004 
     61 O         -79.3561   24.9302  -75.1454 O.2       2 UNK        -0.5226 
     62 CA        -81.4694   24.1588  -74.3278 C.3       2 UNK         0.0269 
     63 CB        -80.9499   23.3802  -73.1073 C.3       2 UNK        -0.1926 
     64 N         -81.9044   25.4847  -73.8987 N.am      2 UNK        -0.4687 
     65 C         -82.7345   26.2791  -74.5901 C.2       1 UNK         0.5165 
     66 O         -83.2757   25.9402  -75.6442 O.2       1 UNK        -0.5079 
     67 H67       -81.9922   28.0215  -70.1404 H         1 UNK         0.0900 
     68 H68       -82.7225   26.4735  -69.7102 H         1 UNK         0.0900 
     69 H69       -83.6597   27.9629  -69.5670 H         1 UNK         0.0900 
     70 H70       -81.8525   28.2910  -72.3601 H         1 UNK         0.2959 
     71 H71       -84.0949   27.8354  -74.1135 H         1 UNK         0.1079 
     72 H72       -82.6503   28.7606  -75.8708 H         1 UNK         0.0837 
     73 H73       -82.6452   29.7839  -74.4700 H         1 UNK         0.0837 
     74 H74       -80.1164   30.9429  -73.9809 H         1 UNK         0.0685 
     75 H75       -80.8105   29.9327  -72.7364 H         1 UNK         0.0685 
     76 H76       -79.3750   27.9904  -71.7913 H         1 UNK         0.1434 
     77 H77       -75.2243   28.9685  -71.3950 H         1 UNK         0.1329 
     78 H78       -77.7262   31.2695  -74.0116 H         1 UNK         0.1335 
     79 H79       -75.4867   32.1478  -73.0766 H         1 UNK         0.0680 
     80 H80       -74.3976   31.0093  -72.3222 H         1 UNK         0.0680 
     81 H81       -72.9855   32.3722  -73.7464 H         1 UNK         0.1032 
     82 H82       -72.8680   32.3586  -75.4756 H         1 UNK         0.1032 
     83 H83       -71.3722   30.5317  -75.5384 H         1 UNK         0.0461 
     84 H84       -69.1152   32.2605  -72.6284 H         1 UNK         0.3453 
     85 H85       -70.2276   30.9665  -72.2541 H         1 UNK         0.3453 
     86 H86       -72.7296   29.4459  -73.4550 H         1 UNK         0.2984 
     87 H87       -70.5947   26.7767  -72.5787 H         1 UNK         0.0554 
     88 H88       -72.8050   26.5191  -71.5639 H         1 UNK         0.0847 
     89 H89       -73.4585   27.8775  -72.4594 H         1 UNK         0.0847 
     90 H90       -72.2402   28.1431  -71.2124 H         1 UNK         0.0847 
     91 H91       -72.8981   26.6549  -74.4364 H         1 UNK         0.3141 
     92 H92       -70.9780   25.1976  -77.0681 H         1 UNK         0.0743 
     93 H93       -73.4205   24.2120  -75.4997 H         1 UNK         0.0784 
     94 H94       -72.9802   23.7242  -77.1345 H         1 UNK         0.0784 
     95 H95       -71.9547   23.2829  -75.7773 H         1 UNK         0.0784 
     96 H96       -73.6426   26.1839  -77.0117 H         1 UNK         0.3213 
     97 H97       -73.0476   29.5987  -77.4702 H         1 UNK         0.0855 
     98 H98       -72.5454   28.8950  -79.7842 H         1 UNK         0.0814 
     99 H99       -74.2271   29.3832  -79.6527 H         1 UNK         0.0814 
    100 H100      -73.8037   27.6729  -79.7310 H         1 UNK         0.0814 
    101 H101      -74.9382   29.1404  -76.4819 H         1 UNK         0.3105 
    102 H102      -76.8306   28.3682  -75.8316 H         1 UNK         0.0547 
    103 H103      -78.1244   28.2403  -77.9254 H         1 UNK         0.0837 
    104 H104      -78.0179   26.4859  -77.9466 H         1 UNK         0.0837 
    105 H105      -78.9648   27.2918  -76.7084 H         1 UNK         0.0837 
    106 H106      -77.7259   25.8174  -75.3880 H         1 UNK         0.3020 
    107 H107      -75.1902   24.4400  -73.2829 H         1 UNK         0.1245 
    108 H108      -77.4720   24.2488  -71.9849 H         1 UNK         0.0781 
    109 H109      -77.8577   25.7957  -72.6805 H         1 UNK         0.0781 
    110 H110      -76.6762   27.6415  -69.5682 H         1 UNK         0.0836 
    111 H111      -78.0679   26.8005  -70.1992 H         1 UNK         0.0836 
    112 H112      -77.7352   23.8772  -74.7288 H         1 UNK         0.3022 
    113 H113      -76.3212   21.2004  -76.4246 H         1 UNK         0.0747 
    114 H114      -77.8605   19.5759  -75.3275 H         1 UNK         0.0793 
    115 H115      -76.4612   19.8795  -74.3133 H         1 UNK         0.0793 
    116 H116      -78.0010   20.6300  -73.9191 H         1 UNK         0.0793 
    117 H117      -79.0573   21.8910  -75.7460 H         1 UNK         0.3047 
    118 H118      -79.4211   24.5477  -77.9689 H         1 UNK         0.0822 
    119 H119      -81.1527   23.2155  -79.1429 H         1 UNK         0.0807 
    120 H120      -80.4544   21.7147  -78.5313 H         1 UNK         0.0807 
    121 H121      -79.5543   22.7134  -79.6641 H         1 UNK         0.0807 
    122 H122      -81.4090   23.0578  -76.6437 H         1 UNK         0.2946 
    123 H123      -82.3269   23.6233  -74.7422 H         1 UNK         0.1144 
    124 H124      -80.6329   22.3752  -73.3891 H         1 UNK         0.0793 
    125 H125      -81.7245   23.2727  -72.3477 H         1 UNK         0.0793 
    126 H126      -80.0943   23.8740  -72.6445 H         1 UNK         0.0793 
    127 H127      -81.4729   25.8599  -73.0679 H         1 UNK         0.2896 
@<TRIPOS>BOND
     1    1    2 1    
     2    1   67 1    
     3    1   68 1    
     4    1   69 1    
     5    2    3 2    
     6    2    4 am   BACKBONE|DICT|INTERRES
     7    4    5 1    
     8    4   70 1    
     9    5    6 1    
    10    5   65 1    
    11    5   71 1    
    12    6    7 1    
    13    6   72 1    
    14    6   73 1    
    15    7    8 1    
    16    8    9 1    
    17    8   74 1    
    18    8   75 1    
    19    9   10 ar   
    20    9   14 ar   
    21   10   11 ar   
    22   10   76 1    
    23   11   12 ar   
    24   11   48 1    
    25   12   13 ar   
    26   12   77 1    
    27   13   14 ar   
    28   13   15 1    
    29   14   78 1    
    30   15   16 1    
    31   15   79 1    
    32   15   80 1    
    33   16   17 1    
    34   17   18 1    
    35   17   81 1    
    36   17   82 1    
    37   18   19 1    
    38   18   22 1    
    39   18   83 1    
    40   19   20 am   BACKBONE|DICT|INTERRES
    41   19   21 2    
    42   20   84 1    
    43   20   85 1    
    44   22   23 am   BACKBONE|DICT|INTERRES
    45   22   86 1    
    46   23   24 2    
    47   23   25 1    
    48   25   26 1    
    49   25   27 1    
    50   25   87 1    
    51   26   88 1    
    52   26   89 1    
    53   26   90 1    
    54   27   28 am   BACKBONE|DICT|INTERRES
    55   27   91 1    
    56   28   29 2    
    57   28   30 1    
    58   30   31 1    
    59   30   32 1    
    60   30   92 1    
    61   31   93 1    
    62   31   94 1    
    63   31   95 1    
    64   32   33 am   BACKBONE|DICT|INTERRES
    65   32   96 1    
    66   33   34 2    
    67   33   35 1    
    68   35   36 1    
    69   35   37 1    
    70   35   97 1    
    71   36   98 1    
    72   36   99 1    
    73   36  100 1    
    74   37   38 am   BACKBONE|DICT|INTERRES
    75   37  101 1    
    76   38   39 2    
    77   38   40 1    
    78   40   41 1    
    79   40   42 1    
    80   40  102 1    
    81   41  103 1    
    82   41  104 1    
    83   41  105 1    
    84   42   43 am   BACKBONE|DICT|INTERRES
    85   42  106 1    
    86   43   44 2    
    87   43   45 1    
    88   45   46 1    
    89   45   49 1    
    90   45  107 1    
    91   46   47 1    
    92   46  108 1    
    93   46  109 1    
    94   47   48 1    
    95   48  110 1    
    96   48  111 1    
    97   49   50 am   BACKBONE|DICT|INTERRES
    98   49  112 1    
    99   50   51 2    
   100   50   52 1    
   101   52   53 1    
   102   52   54 1    
   103   52  113 1    
   104   53  114 1    
   105   53  115 1    
   106   53  116 1    
   107   54   55 am   BACKBONE|DICT|INTERRES
   108   54  117 1    
   109   55   56 2    
   110   55   57 1    
   111   57   58 1    
   112   57   59 1    
   113   57  118 1    
   114   58  119 1    
   115   58  120 1    
   116   58  121 1    
   117   59   60 am   BACKBONE|DICT|INTERRES
   118   59  122 1    
   119   60   61 2    
   120   60   62 1    
   121   62   63 1    
   122   62   64 1    
   123   62  123 1    
   124   63  124 1    
   125   63  125 1    
   126   63  126 1    
   127   64   65 am   BACKBONE|DICT|INTERRES
   128   64  127 1    
   129   65   66 2    
@<TRIPOS>SUBSTRUCTURE
     1 UNK         1 GROUP             0       ****    0 ROOT    
