@<TRIPOS>MOLECULE
3R135
127   129    1
SMALL
USER_CHARGES


@<TRIPOS>ATOM
      1 CA        -80.7418   28.5764  -70.2816 C.3       0 UNK        -0.1998 
      2 C         -81.6115   28.2750  -71.4930 C.2       0 UNK         0.4909 
      3 O         -82.8124   28.0479  -71.3468 O.2       0 UNK        -0.5240 
      4 N         -81.0102   28.2730  -72.6895 N.am      1 UNK        -0.4739 
      5 CA        -81.6752   28.0476  -73.9819 C.3       1 UNK         0.0864 
      6 C6        -80.7678   28.4059  -75.1892 C.3       11 UNK        -0.0881 
      7 S7        -79.8632   29.9847  -75.0158 S.3       11 UNK        -0.2682 
      8 C8        -78.1332   29.4125  -75.0528 C.3       11 UNK         0.0289 
      9 C9        -77.6266   28.9872  -73.6796 C.ar      11 UNK        -0.0687 
     10 C10       -77.9504   27.7330  -73.1483 C.ar      11 UNK        -0.0823 
     11 C11       -77.5099   27.3654  -71.8718 C.ar      11 UNK        -0.0830 
     12 C12       -76.6863   28.2374  -71.1551 C.ar      11 UNK        -0.1021 
     13 C13       -76.3338   29.4814  -71.6841 C.ar      11 UNK        -0.0753 
     14 C14       -76.8196   29.8568  -72.9396 C.ar      11 UNK        -0.0933 
     15 C15       -75.4465   30.4227  -70.8845 C.3       11 UNK         0.0166 
     16 S16       -73.7314   30.3961  -71.4917 S.3       11 UNK        -0.2615 
     17 C17       -73.6594   31.9852  -72.3922 C.3       11 UNK        -0.0865 
     18 CA        -72.4289   32.1285  -73.3239 C.3       10 UNK         0.0862 
     19 C         -71.0914   32.2322  -72.5289 C.2       10 UNK         0.5551 
     20 N         -70.1537   31.3013  -72.6676 N.am      10 UNK        -0.7319 
     21 O         -70.8987   33.1884  -71.7816 O.2       10 UNK        -0.5018 
     22 N         -72.4420   31.1177  -74.3905 N.am      10 UNK        -0.4509 
     23 C         -71.7594   31.2137  -75.5385 C.2       10 UNK         0.4899 
     24 O         -71.1511   32.2285  -75.8830 O.2       10 UNK        -0.4839 
     25 CA        -71.7528   29.9734  -76.4569 C.3       9 UNK         0.0222 
     26 CB        -70.4772   29.8931  -77.3214 C.3       9 UNK        -0.1966 
     27 N         -71.9724   28.6943  -75.7670 N.am      9 UNK        -0.4218 
     28 C         -71.2542   28.1725  -74.7566 C.2       9 UNK         0.5020 
     29 O         -70.3272   28.7622  -74.1988 O.2       9 UNK        -0.5274 
     30 CA        -71.6379   26.7619  -74.2670 C.3       8 UNK         0.0270 
     31 CB        -72.5055   26.8632  -73.0009 C.3       8 UNK        -0.1976 
     32 N         -72.3415   25.9637  -75.2766 N.am      8 UNK        -0.4313 
     33 C         -71.7957   25.5352  -76.4276 C.2       8 UNK         0.5041 
     34 O         -70.5969   25.6430  -76.6888 O.2       8 UNK        -0.5577 
     35 CA        -72.7310   24.9155  -77.4885 C.3       7 UNK         0.0284 
     36 CB        -72.5692   23.3875  -77.5169 C.3       7 UNK        -0.1958 
     37 N         -74.1491   25.2497  -77.3139 N.am      7 UNK        -0.4454 
     38 C         -74.6563   26.4933  -77.3183 C.2       7 UNK         0.5089 
     39 O         -73.9913   27.4942  -77.5867 O.2       7 UNK        -0.5125 
     40 CA        -76.1192   26.6799  -76.8692 C.3       6 UNK         0.0408 
     41 CB        -77.0243   26.9413  -78.0825 C.3       6 UNK        -0.1791 
     42 N         -76.6746   25.5748  -76.0782 N.am      6 UNK        -0.4762 
     43 C         -76.1474   25.0865  -74.9412 C.2       6 UNK         0.5007 
     44 O         -75.1526   25.5721  -74.4027 O.2       6 UNK        -0.5032 
     45 CA        -76.7599   23.7855  -74.3665 C.3       5 UNK         0.0783 
     46 C46       -77.7313   24.0616  -73.1973 C.3       11 UNK        -0.0857 
     47 S47       -76.9150   24.6474  -71.6763 S.3       11 UNK        -0.2512 
     48 C48       -77.9643   26.0625  -71.2258 C.3       11 UNK         0.0225 
     49 N         -77.4193   22.9583  -75.3849 N.am      5 UNK        -0.4615 
     50 C         -76.8523   22.4946  -76.5083 C.2       4 UNK         0.5053 
     51 O         -75.6555   22.6230  -76.7659 O.2       4 UNK        -0.5105 
     52 CA        -77.7720   21.8345  -77.5528 C.3       4 UNK         0.0263 
     53 CB        -77.5965   20.3078  -77.5291 C.3       4 UNK        -0.1981 
     54 N         -79.1980   22.1551  -77.4150 N.am      4 UNK        -0.4224 
     55 C         -79.7520   23.3776  -77.4330 C.2       3 UNK         0.4895 
     56 O         -79.1098   24.4218  -77.5571 O.2       3 UNK        -0.5091 
     57 CA        -81.2794   23.4543  -77.2379 C.3       3 UNK         0.0250 
     58 CB        -82.0105   22.1188  -77.5055 C.3       3 UNK        -0.1996 
     59 N         -81.6581   23.9722  -75.9167 N.am      3 UNK        -0.4254 
     60 C         -81.2471   23.5416  -74.7144 C.2       2 UNK         0.5004 
     61 O         -80.3895   22.6706  -74.5519 O.2       2 UNK        -0.5226 
     62 CA        -81.9014   24.2153  -73.4906 C.3       2 UNK         0.0269 
     63 CB        -81.4850   23.5648  -72.1577 C.3       2 UNK        -0.1926 
     64 N         -81.6048   25.6478  -73.4270 N.am      2 UNK        -0.4687 
     65 C         -82.1941   26.6037  -74.1594 C.2       1 UNK         0.5165 
     66 O         -83.0817   26.3724  -74.9821 O.2       1 UNK        -0.5079 
     67 H67       -81.1947   29.3648  -69.6812 H         1 UNK         0.0900 
     68 H68       -80.6429   27.6876  -69.6592 H         1 UNK         0.0900 
     69 H69       -79.7432   28.9056  -70.5689 H         1 UNK         0.0900 
     70 H70       -80.0330   28.5269  -72.7497 H         1 UNK         0.2959 
     71 H71       -82.5487   28.7030  -74.0104 H         1 UNK         0.1079 
     72 H72       -80.0566   27.6037  -75.3927 H         1 UNK         0.0837 
     73 H73       -81.3766   28.4795  -76.0926 H         1 UNK         0.0837 
     74 H74       -77.5125   30.2189  -75.4464 H         1 UNK         0.0685 
     75 H75       -78.0392   28.5934  -75.7625 H         1 UNK         0.0685 
     76 H76       -78.5656   27.0540  -73.7186 H         1 UNK         0.1434 
     77 H77       -76.3307   27.9529  -70.1740 H         1 UNK         0.1329 
     78 H78       -76.5629   30.8256  -73.3441 H         1 UNK         0.1335 
     79 H79       -75.8511   31.4354  -70.9174 H         1 UNK         0.0680 
     80 H80       -75.4439   30.1359  -69.8318 H         1 UNK         0.0680 
     81 H81       -73.6816   32.7992  -71.6649 H         1 UNK         0.1032 
     82 H82       -74.5686   32.0976  -72.9837 H         1 UNK         0.1032 
     83 H83       -72.5365   33.0966  -73.8172 H         1 UNK         0.0461 
     84 H84       -69.2939   31.3880  -72.1504 H         1 UNK         0.3453 
     85 H85       -70.3012   30.4956  -73.2677 H         1 UNK         0.3453 
     86 H86       -72.8953   30.2447  -74.1650 H         1 UNK         0.2984 
     87 H87       -72.6008   30.0968  -77.1319 H         1 UNK         0.0554 
     88 H88       -70.3723   30.7748  -77.9548 H         1 UNK         0.0847 
     89 H89       -70.4995   29.0250  -77.9803 H         1 UNK         0.0847 
     90 H90       -69.5788   29.8240  -76.7069 H         1 UNK         0.0847 
     91 H91       -72.7128   28.1260  -76.1678 H         1 UNK         0.3141 
     92 H92       -70.7136   26.2403  -74.0105 H         1 UNK         0.0743 
     93 H93       -71.9872   27.4126  -72.2137 H         1 UNK         0.0784 
     94 H94       -73.4450   27.3839  -73.1936 H         1 UNK         0.0784 
     95 H95       -72.7474   25.8773  -72.6035 H         1 UNK         0.0784 
     96 H96       -73.3329   25.8052  -75.1114 H         1 UNK         0.3213 
     97 H97       -72.4211   25.3109  -78.4580 H         1 UNK         0.0855 
     98 H98       -72.8726   22.9337  -76.5725 H         1 UNK         0.0814 
     99 H99       -71.5302   23.1067  -77.6952 H         1 UNK         0.0814 
    100 H100      -73.1663   22.9386  -78.3110 H         1 UNK         0.0814 
    101 H101      -74.7648   24.4772  -77.0798 H         1 UNK         0.3105 
    102 H102      -76.1241   27.5635  -76.2309 H         1 UNK         0.0547 
    103 H103      -78.0480   27.1606  -77.7792 H         1 UNK         0.0837 
    104 H104      -77.0542   26.0809  -78.7523 H         1 UNK         0.0837 
    105 H105      -76.6680   27.7945  -78.6613 H         1 UNK         0.0837 
    106 H106      -77.4790   25.1013  -76.4795 H         1 UNK         0.3020 
    107 H107      -75.9247   23.1943  -73.9843 H         1 UNK         0.1245 
    108 H108      -78.2406   23.1359  -72.9249 H         1 UNK         0.0781 
    109 H109      -78.5184   24.7484  -73.5089 H         1 UNK         0.0781 
    110 H110      -77.9419   26.1666  -70.1398 H         1 UNK         0.0836 
    111 H111      -79.0056   25.8558  -71.4737 H         1 UNK         0.0836 
    112 H112      -78.4123   22.7960  -75.2496 H         1 UNK         0.3022 
    113 H113      -77.4530   22.2013  -78.5305 H         1 UNK         0.0747 
    114 H114      -78.1567   19.8300  -78.3331 H         1 UNK         0.0793 
    115 H115      -76.5489   20.0323  -77.6601 H         1 UNK         0.0793 
    116 H116      -77.9305   19.8787  -76.5834 H         1 UNK         0.0793 
    117 H117      -79.8158   21.3712  -77.2624 H         1 UNK         0.3047 
    118 H118      -81.6388   24.1789  -77.9703 H         1 UNK         0.0822 
    119 H119      -83.0914   22.2596  -77.4902 H         1 UNK         0.0807 
    120 H120      -81.7726   21.3582  -76.7608 H         1 UNK         0.0807 
    121 H121      -81.7587   21.7179  -78.4885 H         1 UNK         0.0807 
    122 H122      -82.3158   24.7457  -75.9197 H         1 UNK         0.2946 
    123 H123      -82.9811   24.0839  -73.5963 H         1 UNK         0.1144 
    124 H124      -80.4191   23.6784  -71.9618 H         1 UNK         0.0793 
    125 H125      -81.7034   22.4960  -72.1596 H         1 UNK         0.0793 
    126 H126      -82.0270   24.0016  -71.3186 H         1 UNK         0.0793 
    127 H127      -80.8927   25.9344  -72.7739 H         1 UNK         0.2896 
@<TRIPOS>BOND
     1    1    2 1    
     2    1   67 1    
     3    1   68 1    
     4    1   69 1    
     5    2    3 2    
     6    2    4 am   BACKBONE|DICT|INTERRES
     7    4    5 1    
     8    4   70 1    
     9    5    6 1    
    10    5   65 1    
    11    5   71 1    
    12    6    7 1    
    13    6   72 1    
    14    6   73 1    
    15    7    8 1    
    16    8    9 1    
    17    8   74 1    
    18    8   75 1    
    19    9   10 ar   
    20    9   14 ar   
    21   10   11 ar   
    22   10   76 1    
    23   11   12 ar   
    24   11   48 1    
    25   12   13 ar   
    26   12   77 1    
    27   13   14 ar   
    28   13   15 1    
    29   14   78 1    
    30   15   16 1    
    31   15   79 1    
    32   15   80 1    
    33   16   17 1    
    34   17   18 1    
    35   17   81 1    
    36   17   82 1    
    37   18   19 1    
    38   18   22 1    
    39   18   83 1    
    40   19   20 am   BACKBONE|DICT|INTERRES
    41   19   21 2    
    42   20   84 1    
    43   20   85 1    
    44   22   23 am   BACKBONE|DICT|INTERRES
    45   22   86 1    
    46   23   24 2    
    47   23   25 1    
    48   25   26 1    
    49   25   27 1    
    50   25   87 1    
    51   26   88 1    
    52   26   89 1    
    53   26   90 1    
    54   27   28 am   BACKBONE|DICT|INTERRES
    55   27   91 1    
    56   28   29 2    
    57   28   30 1    
    58   30   31 1    
    59   30   32 1    
    60   30   92 1    
    61   31   93 1    
    62   31   94 1    
    63   31   95 1    
    64   32   33 am   BACKBONE|DICT|INTERRES
    65   32   96 1    
    66   33   34 2    
    67   33   35 1    
    68   35   36 1    
    69   35   37 1    
    70   35   97 1    
    71   36   98 1    
    72   36   99 1    
    73   36  100 1    
    74   37   38 am   BACKBONE|DICT|INTERRES
    75   37  101 1    
    76   38   39 2    
    77   38   40 1    
    78   40   41 1    
    79   40   42 1    
    80   40  102 1    
    81   41  103 1    
    82   41  104 1    
    83   41  105 1    
    84   42   43 am   BACKBONE|DICT|INTERRES
    85   42  106 1    
    86   43   44 2    
    87   43   45 1    
    88   45   46 1    
    89   45   49 1    
    90   45  107 1    
    91   46   47 1    
    92   46  108 1    
    93   46  109 1    
    94   47   48 1    
    95   48  110 1    
    96   48  111 1    
    97   49   50 am   BACKBONE|DICT|INTERRES
    98   49  112 1    
    99   50   51 2    
   100   50   52 1    
   101   52   53 1    
   102   52   54 1    
   103   52  113 1    
   104   53  114 1    
   105   53  115 1    
   106   53  116 1    
   107   54   55 am   BACKBONE|DICT|INTERRES
   108   54  117 1    
   109   55   56 2    
   110   55   57 1    
   111   57   58 1    
   112   57   59 1    
   113   57  118 1    
   114   58  119 1    
   115   58  120 1    
   116   58  121 1    
   117   59   60 am   BACKBONE|DICT|INTERRES
   118   59  122 1    
   119   60   61 2    
   120   60   62 1    
   121   62   63 1    
   122   62   64 1    
   123   62  123 1    
   124   63  124 1    
   125   63  125 1    
   126   63  126 1    
   127   64   65 am   BACKBONE|DICT|INTERRES
   128   64  127 1    
   129   65   66 2    
@<TRIPOS>SUBSTRUCTURE
     1 UNK         1 GROUP             0       ****    0 ROOT    
