@<TRIPOS>MOLECULE
3R135
127   129    1
SMALL
USER_CHARGES


@<TRIPOS>ATOM
      1 CA        -81.2482   29.9355  -75.5274 C.3       0 UNK        -0.1998 
      2 C         -80.4370   28.6517  -75.4405 C.2       0 UNK         0.4909 
      3 O         -80.6936   27.8303  -74.5609 O.2       0 UNK        -0.5240 
      4 N         -79.4597   28.4851  -76.3440 N.am      1 UNK        -0.4739 
      5 CA        -78.5579   27.3267  -76.4547 C.3       1 UNK         0.0864 
      6 C6        -77.6240   27.1411  -75.2278 C.3       11 UNK        -0.0881 
      7 S7        -76.5969   28.6095  -74.8728 S.3       11 UNK        -0.2682 
      8 C8        -77.2625   29.1743  -73.2688 C.3       11 UNK         0.0289 
      9 C9        -76.5703   28.4938  -72.0940 C.ar      11 UNK        -0.0687 
     10 C10       -76.8666   27.1661  -71.7769 C.ar      11 UNK        -0.0823 
     11 C11       -76.1961   26.5100  -70.7434 C.ar      11 UNK        -0.0830 
     12 C12       -75.2558   27.2094  -69.9836 C.ar      11 UNK        -0.1021 
     13 C13       -74.9810   28.5544  -70.2537 C.ar      11 UNK        -0.0753 
     14 C14       -75.6367   29.1891  -71.3165 C.ar      11 UNK        -0.0933 
     15 C15       -74.0031   29.3143  -69.3657 C.3       11 UNK         0.0166 
     16 S16       -72.5858   29.9904  -70.2873 S.3       11 UNK        -0.2615 
     17 C17       -73.0389   31.7597  -70.4074 C.3       11 UNK        -0.0865 
     18 CA        -72.6032   32.4289  -71.7352 C.3       10 UNK         0.0862 
     19 C         -71.0588   32.6247  -71.8139 C.2       10 UNK         0.5551 
     20 N         -70.3460   31.9750  -72.7273 N.am      10 UNK        -0.7319 
     21 O         -70.5014   33.3951  -71.0358 O.2       10 UNK        -0.5018 
     22 N         -73.2009   31.7547  -72.8952 N.am      10 UNK        -0.4509 
     23 C         -73.3223   32.2946  -74.1136 C.2       10 UNK         0.4899 
     24 O         -73.0894   33.4798  -74.3566 O.2       10 UNK        -0.4839 
     25 CA        -73.7813   31.3608  -75.2535 C.3       9 UNK         0.0222 
     26 CB        -73.1603   31.7546  -76.6099 C.3       9 UNK        -0.1966 
     27 N         -73.5727   29.9264  -75.0064 N.am      9 UNK        -0.4218 
     28 C         -72.4199   29.2955  -74.7276 C.2       9 UNK         0.5020 
     29 O         -71.3455   29.8666  -74.5363 O.2       9 UNK        -0.5274 
     30 CA        -72.4850   27.7604  -74.6617 C.3       8 UNK         0.0270 
     31 CB        -73.0140   27.2933  -73.2976 C.3       8 UNK        -0.1976 
     32 N         -73.2996   27.1969  -75.7457 N.am      8 UNK        -0.4313 
     33 C         -72.9137   27.1950  -77.0299 C.2       8 UNK         0.5041 
     34 O         -71.7913   27.5456  -77.3993 O.2       8 UNK        -0.5577 
     35 CA        -73.9454   26.7316  -78.0689 C.3       7 UNK         0.0284 
     36 CB        -73.3361   26.5465  -79.4768 C.3       7 UNK        -0.1958 
     37 N         -74.6181   25.5036  -77.6424 N.am      7 UNK        -0.4454 
     38 C         -75.8047   25.0961  -78.1050 C.2       7 UNK         0.5089 
     39 O         -76.5004   25.7574  -78.8762 O.2       7 UNK        -0.5125 
     40 CA        -76.3171   23.7282  -77.6312 C.3       6 UNK         0.0408 
     41 CB        -75.5094   22.5678  -78.2460 C.3       6 UNK        -0.1791 
     42 N         -76.4394   23.6152  -76.1735 N.am      6 UNK        -0.4762 
     43 C         -75.4759   23.5236  -75.2460 C.2       6 UNK         0.5007 
     44 O         -74.2766   23.5713  -75.5253 O.2       6 UNK        -0.5032 
     45 CA        -75.9050   23.3738  -73.7634 C.3       5 UNK         0.0783 
     46 C46       -75.0770   24.3065  -72.8444 C.3       11 UNK        -0.0857 
     47 S47       -75.2238   23.9077  -71.0668 S.3       11 UNK        -0.2512 
     48 C48       -76.5030   25.0495  -70.4449 C.3       11 UNK         0.0225 
     49 N         -77.3517   23.5495  -73.5545 N.am      5 UNK        -0.4615 
     50 C         -78.2820   22.6082  -73.7590 C.2       4 UNK         0.5053 
     51 O         -78.0203   21.4816  -74.1818 O.2       4 UNK        -0.5105 
     52 CA        -79.7476   22.9688  -73.4642 C.3       4 UNK         0.0263 
     53 CB        -79.9772   24.3938  -72.9192 C.3       4 UNK        -0.1981 
     54 N         -80.5130   22.7999  -74.6955 N.am      4 UNK        -0.4224 
     55 C         -81.6732   22.1403  -74.8112 C.2       3 UNK         0.4895 
     56 O         -82.2544   21.6143  -73.8594 O.2       3 UNK        -0.5091 
     57 CA        -82.2799   22.0144  -76.2268 C.3       3 UNK         0.0250 
     58 CB        -83.8243   22.0330  -76.2142 C.3       3 UNK        -0.1996 
     59 N         -81.7423   22.9742  -77.2032 N.am      3 UNK        -0.4254 
     60 C         -81.8748   24.3091  -77.1908 C.2       2 UNK         0.5004 
     61 O         -82.5479   24.9396  -76.3731 O.2       2 UNK        -0.5226 
     62 CA        -81.1057   25.0691  -78.2855 C.3       2 UNK         0.0269 
     63 CB        -82.0750   25.6325  -79.3376 C.3       2 UNK        -0.1926 
     64 N         -80.2899   26.1609  -77.7468 N.am      2 UNK        -0.4687 
     65 C         -79.3226   26.0326  -76.8254 C.2       1 UNK         0.5165 
     66 O         -79.0250   24.9571  -76.2966 O.2       1 UNK        -0.5079 
     67 H67       -80.9247   30.5688  -76.3533 H         1 UNK         0.0900 
     68 H68       -81.1474   30.5051  -74.6037 H         1 UNK         0.0900 
     69 H69       -82.3030   29.7025  -75.6711 H         1 UNK         0.0900 
     70 H70       -79.3003   29.2137  -77.0260 H         1 UNK         0.2959 
     71 H71       -77.9161   27.5304  -77.3135 H         1 UNK         0.1079 
     72 H72       -76.9427   26.3056  -75.3879 H         1 UNK         0.0837 
     73 H73       -78.2233   26.8823  -74.3593 H         1 UNK         0.0837 
     74 H74       -77.1306   30.2554  -73.2058 H         1 UNK         0.0685 
     75 H75       -78.3380   28.9995  -73.2222 H         1 UNK         0.0685 
     76 H76       -77.6107   26.6303  -72.3424 H         1 UNK         0.1434 
     77 H77       -74.7477   26.7047  -69.1731 H         1 UNK         0.1329 
     78 H78       -75.4223   30.2251  -71.5359 H         1 UNK         0.1335 
     79 H79       -74.5335   30.1070  -68.8371 H         1 UNK         0.0680 
     80 H80       -73.6076   28.6565  -68.5904 H         1 UNK         0.0680 
     81 H81       -74.1189   31.8670  -70.3006 H         1 UNK         0.1032 
     82 H82       -72.6120   32.2872  -69.5522 H         1 UNK         0.1032 
     83 H83       -73.0157   33.4396  -71.7170 H         1 UNK         0.0461 
     84 H84       -69.3498   32.1171  -72.7682 H         1 UNK         0.3453 
     85 H85       -70.7871   31.3130  -73.3589 H         1 UNK         0.3453 
     86 H86       -73.3707   30.7661  -72.7862 H         1 UNK         0.2984 
     87 H87       -74.8609   31.4963  -75.3326 H         1 UNK         0.0554 
     88 H88       -73.5146   31.1069  -77.4116 H         1 UNK         0.0847 
     89 H89       -72.0717   31.6928  -76.5861 H         1 UNK         0.0847 
     90 H90       -73.4228   32.7771  -76.8838 H         1 UNK         0.0847 
     91 H91       -74.4062   29.3574  -75.0916 H         1 UNK         0.3141 
     92 H92       -71.4641   27.3866  -74.7672 H         1 UNK         0.0743 
     93 H93       -74.0727   27.5159  -73.1701 H         1 UNK         0.0784 
     94 H94       -72.8735   26.2213  -73.1717 H         1 UNK         0.0784 
     95 H95       -72.4791   27.7793  -72.4805 H         1 UNK         0.0784 
     96 H96       -74.2339   26.8921  -75.5158 H         1 UNK         0.3213 
     97 H97       -74.6877   27.5314  -78.1252 H         1 UNK         0.0855 
     98 H98       -72.8495   27.4610  -79.8189 H         1 UNK         0.0814 
     99 H99       -74.0973   26.2987  -80.2165 H         1 UNK         0.0814 
    100 H100      -72.5881   25.7529  -79.4869 H         1 UNK         0.0814 
    101 H101      -74.1315   24.9056  -76.9781 H         1 UNK         0.3105 
    102 H102      -77.3361   23.6323  -78.0094 H         1 UNK         0.0547 
    103 H103      -75.5332   22.6161  -79.3354 H         1 UNK         0.0837 
    104 H104      -74.4610   22.5860  -77.9483 H         1 UNK         0.0837 
    105 H105      -75.9227   21.6019  -77.9562 H         1 UNK         0.0837 
    106 H106      -77.3953   23.6674  -75.8413 H         1 UNK         0.3020 
    107 H107      -75.6486   22.3455  -73.4972 H         1 UNK         0.1245 
    108 H108      -75.3173   25.3510  -73.0350 H         1 UNK         0.0781 
    109 H109      -74.0139   24.2045  -73.0679 H         1 UNK         0.0781 
    110 H110      -76.5933   24.9151  -69.3660 H         1 UNK         0.0836 
    111 H111      -77.4681   24.7627  -70.8588 H         1 UNK         0.0836 
    112 H112      -77.6503   24.4538  -73.2274 H         1 UNK         0.3022 
    113 H113      -80.0868   22.2575  -72.7084 H         1 UNK         0.0747 
    114 H114      -79.4577   24.5520  -71.9753 H         1 UNK         0.0793 
    115 H115      -79.6584   25.1613  -73.6239 H         1 UNK         0.0793 
    116 H116      -81.0363   24.5634  -72.7233 H         1 UNK         0.0793 
    117 H117      -80.1036   23.2199  -75.5222 H         1 UNK         0.3047 
    118 H118      -81.9739   21.0300  -76.5844 H         1 UNK         0.0822 
    119 H119      -84.2162   22.9541  -75.7819 H         1 UNK         0.0807 
    120 H120      -84.2213   21.2061  -75.6241 H         1 UNK         0.0807 
    121 H121      -84.2314   21.9339  -77.2204 H         1 UNK         0.0807 
    122 H122      -81.1687   22.5632  -77.9276 H         1 UNK         0.2946 
    123 H123      -80.4239   24.3766  -78.7843 H         1 UNK         0.1144 
    124 H124      -82.6831   24.8383  -79.7732 H         1 UNK         0.0793 
    125 H125      -82.7579   26.3648  -78.9046 H         1 UNK         0.0793 
    126 H126      -81.5391   26.1140  -80.1560 H         1 UNK         0.0793 
    127 H127      -80.4928   27.0872  -78.0921 H         1 UNK         0.2896 
@<TRIPOS>BOND
     1    1    2 1    
     2    1   67 1    
     3    1   68 1    
     4    1   69 1    
     5    2    3 2    
     6    2    4 am   BACKBONE|DICT|INTERRES
     7    4    5 1    
     8    4   70 1    
     9    5    6 1    
    10    5   65 1    
    11    5   71 1    
    12    6    7 1    
    13    6   72 1    
    14    6   73 1    
    15    7    8 1    
    16    8    9 1    
    17    8   74 1    
    18    8   75 1    
    19    9   10 ar   
    20    9   14 ar   
    21   10   11 ar   
    22   10   76 1    
    23   11   12 ar   
    24   11   48 1    
    25   12   13 ar   
    26   12   77 1    
    27   13   14 ar   
    28   13   15 1    
    29   14   78 1    
    30   15   16 1    
    31   15   79 1    
    32   15   80 1    
    33   16   17 1    
    34   17   18 1    
    35   17   81 1    
    36   17   82 1    
    37   18   19 1    
    38   18   22 1    
    39   18   83 1    
    40   19   20 am   BACKBONE|DICT|INTERRES
    41   19   21 2    
    42   20   84 1    
    43   20   85 1    
    44   22   23 am   BACKBONE|DICT|INTERRES
    45   22   86 1    
    46   23   24 2    
    47   23   25 1    
    48   25   26 1    
    49   25   27 1    
    50   25   87 1    
    51   26   88 1    
    52   26   89 1    
    53   26   90 1    
    54   27   28 am   BACKBONE|DICT|INTERRES
    55   27   91 1    
    56   28   29 2    
    57   28   30 1    
    58   30   31 1    
    59   30   32 1    
    60   30   92 1    
    61   31   93 1    
    62   31   94 1    
    63   31   95 1    
    64   32   33 am   BACKBONE|DICT|INTERRES
    65   32   96 1    
    66   33   34 2    
    67   33   35 1    
    68   35   36 1    
    69   35   37 1    
    70   35   97 1    
    71   36   98 1    
    72   36   99 1    
    73   36  100 1    
    74   37   38 am   BACKBONE|DICT|INTERRES
    75   37  101 1    
    76   38   39 2    
    77   38   40 1    
    78   40   41 1    
    79   40   42 1    
    80   40  102 1    
    81   41  103 1    
    82   41  104 1    
    83   41  105 1    
    84   42   43 am   BACKBONE|DICT|INTERRES
    85   42  106 1    
    86   43   44 2    
    87   43   45 1    
    88   45   46 1    
    89   45   49 1    
    90   45  107 1    
    91   46   47 1    
    92   46  108 1    
    93   46  109 1    
    94   47   48 1    
    95   48  110 1    
    96   48  111 1    
    97   49   50 am   BACKBONE|DICT|INTERRES
    98   49  112 1    
    99   50   51 2    
   100   50   52 1    
   101   52   53 1    
   102   52   54 1    
   103   52  113 1    
   104   53  114 1    
   105   53  115 1    
   106   53  116 1    
   107   54   55 am   BACKBONE|DICT|INTERRES
   108   54  117 1    
   109   55   56 2    
   110   55   57 1    
   111   57   58 1    
   112   57   59 1    
   113   57  118 1    
   114   58  119 1    
   115   58  120 1    
   116   58  121 1    
   117   59   60 am   BACKBONE|DICT|INTERRES
   118   59  122 1    
   119   60   61 2    
   120   60   62 1    
   121   62   63 1    
   122   62   64 1    
   123   62  123 1    
   124   63  124 1    
   125   63  125 1    
   126   63  126 1    
   127   64   65 am   BACKBONE|DICT|INTERRES
   128   64  127 1    
   129   65   66 2    
@<TRIPOS>SUBSTRUCTURE
     1 UNK         1 GROUP             0       ****    0 ROOT    
