@<TRIPOS>MOLECULE
3R135
127   129    1
SMALL
USER_CHARGES


@<TRIPOS>ATOM
      1 CA        -79.3582   30.7127  -75.6448 C.3       0 UNK        -0.1998 
      2 C         -79.5026   29.5162  -74.7170 C.2       0 UNK         0.4909 
      3 O         -78.5293   28.7999  -74.4932 O.2       0 UNK        -0.5240 
      4 N         -80.7058   29.2988  -74.1740 N.am      1 UNK        -0.4739 
      5 CA        -81.0184   28.1634  -73.3004 C.3       1 UNK         0.0864 
      6 C6        -82.2028   28.4582  -72.3461 C.3       11 UNK        -0.0881 
      7 S7        -81.9971   29.9910  -71.3779 S.3       11 UNK        -0.2682 
      8 C8        -81.0218   29.4142  -69.9511 C.3       11 UNK         0.0289 
      9 C9        -79.5487   29.2111  -70.2878 C.ar      11 UNK        -0.0687 
     10 C10       -78.9415   27.9669  -70.0918 C.ar      11 UNK        -0.0823 
     11 C11       -77.5750   27.7947  -70.3352 C.ar      11 UNK        -0.0830 
     12 C12       -76.8178   28.8844  -70.7835 C.ar      11 UNK        -0.1021 
     13 C13       -77.4133   30.1328  -71.0082 C.ar      11 UNK        -0.0753 
     14 C14       -78.7789   30.2835  -70.7491 C.ar      11 UNK        -0.0933 
     15 C15       -76.6204   31.3595  -71.4682 C.3       11 UNK         0.0166 
     16 S16       -75.0227   31.0195  -72.2860 S.3       11 UNK        -0.2615 
     17 C17       -75.5793   30.3190  -73.8770 C.3       11 UNK        -0.0865 
     18 CA        -74.4939   30.2452  -74.9911 C.3       10 UNK         0.0862 
     19 C         -74.0486   31.6225  -75.5718 C.2       10 UNK         0.5551 
     20 N         -72.8661   31.7337  -76.1633 N.am      10 UNK        -0.7319 
     21 O         -74.8033   32.5918  -75.5373 O.2       10 UNK        -0.5018 
     22 N         -73.4542   29.2399  -74.6990 N.am      10 UNK        -0.4509 
     23 C         -72.3351   29.3910  -73.9771 C.2       10 UNK         0.4899 
     24 O         -71.9286   30.4680  -73.5417 O.2       10 UNK        -0.4839 
     25 CA        -71.5135   28.1314  -73.6623 C.3       9 UNK         0.0222 
     26 CB        -71.7591   27.6940  -72.2071 C.3       9 UNK        -0.1966 
     27 N         -71.7937   26.9937  -74.5469 N.am      9 UNK        -0.4218 
     28 C         -70.8504   26.2153  -75.0927 C.2       9 UNK         0.5020 
     29 O         -69.6437   26.4620  -75.0470 O.2       9 UNK        -0.5274 
     30 CA        -71.3091   24.9024  -75.7481 C.3       8 UNK         0.0270 
     31 CB        -71.5793   23.8404  -74.6692 C.3       8 UNK        -0.1976 
     32 N         -72.4791   25.0266  -76.6210 N.am      8 UNK        -0.4313 
     33 C         -72.4478   25.5780  -77.8428 C.2       8 UNK         0.5041 
     34 O         -71.4570   26.1350  -78.3175 O.2       8 UNK        -0.5577 
     35 CA        -73.7193   25.4547  -78.7009 C.3       7 UNK         0.0284 
     36 CB        -73.8707   24.0271  -79.2519 C.3       7 UNK        -0.1958 
     37 N         -74.9288   25.8249  -77.9704 N.am      7 UNK        -0.4454 
     38 C         -75.2601   27.0816  -77.6448 C.2       7 UNK         0.5089 
     39 O         -74.6270   28.0770  -77.9963 O.2       7 UNK        -0.5125 
     40 CA        -76.4894   27.2503  -76.7370 C.3       6 UNK         0.0408 
     41 CB        -77.7845   27.2210  -77.5629 C.3       6 UNK        -0.1791 
     42 N         -76.5543   26.2466  -75.6739 N.am      6 UNK        -0.4762 
     43 C         -75.6047   26.0113  -74.7570 C.2       6 UNK         0.5007 
     44 O         -74.5411   26.6269  -74.6928 O.2       6 UNK        -0.5032 
     45 CA        -75.8505   24.8341  -73.7979 C.3       5 UNK         0.0783 
     46 C46       -76.7144   25.2514  -72.5805 C.3       11 UNK        -0.0857 
     47 S47       -75.6707   25.9320  -71.2517 S.3       11 UNK        -0.2512 
     48 C48       -76.9168   26.4517  -70.0261 C.3       11 UNK         0.0225 
     49 N         -76.3955   23.6751  -74.5095 N.am      5 UNK        -0.4615 
     50 C         -75.7063   22.9454  -75.3980 C.2       4 UNK         0.5053 
     51 O         -74.5328   23.1633  -75.6972 O.2       4 UNK        -0.5105 
     52 CA        -76.4639   21.8067  -76.0994 C.3       4 UNK         0.0263 
     53 CB        -76.5575   20.5726  -75.1881 C.3       4 UNK        -0.1981 
     54 N         -77.8049   22.2086  -76.5278 N.am      4 UNK        -0.4224 
     55 C         -78.0472   23.1238  -77.4766 C.2       3 UNK         0.4895 
     56 O         -77.1662   23.6824  -78.1319 O.2       3 UNK        -0.5091 
     57 CA        -79.5201   23.5119  -77.7046 C.3       3 UNK         0.0250 
     58 CB        -80.1845   22.5378  -78.6907 C.3       3 UNK        -0.1996 
     59 N         -80.3361   23.6088  -76.4841 N.am      3 UNK        -0.4254 
     60 C         -80.0397   24.3622  -75.4152 C.2       2 UNK         0.5004 
     61 O         -78.9729   24.9588  -75.2731 O.2       2 UNK        -0.5226 
     62 CA        -81.0856   24.4407  -74.2916 C.3       2 UNK         0.0269 
     63 CB        -80.8648   23.3051  -73.2793 C.3       2 UNK        -0.1926 
     64 N         -81.0025   25.7265  -73.5898 N.am      2 UNK        -0.4687 
     65 C         -81.3102   26.9077  -74.1442 C.2       1 UNK         0.5165 
     66 O         -81.8392   27.0221  -75.2542 O.2       1 UNK        -0.5079 
     67 H67       -78.9204   30.4009  -76.5911 H         1 UNK         0.0900 
     68 H68       -78.7051   31.4588  -75.1963 H         1 UNK         0.0900 
     69 H69       -80.3174   31.1827  -75.8543 H         1 UNK         0.0900 
     70 H70       -81.4814   29.9035  -74.4012 H         1 UNK         0.2959 
     71 H71       -80.1353   27.9525  -72.6945 H         1 UNK         0.1079 
     72 H72       -82.3598   27.6251  -71.6583 H         1 UNK         0.0837 
     73 H73       -83.1306   28.5560  -72.9136 H         1 UNK         0.0837 
     74 H74       -81.0941   30.1608  -69.1591 H         1 UNK         0.0685 
     75 H75       -81.4670   28.5025  -69.5500 H         1 UNK         0.0685 
     76 H76       -79.5282   27.1389  -69.7177 H         1 UNK         0.1434 
     77 H77       -75.7566   28.7566  -70.9410 H         1 UNK         0.1329 
     78 H78       -79.2478   31.2474  -70.8934 H         1 UNK         0.1335 
     79 H79       -77.2309   31.9624  -72.1423 H         1 UNK         0.0680 
     80 H80       -76.4249   31.9811  -70.5937 H         1 UNK         0.0680 
     81 H81       -75.9670   29.3169  -73.6842 H         1 UNK         0.1032 
     82 H82       -76.4363   30.8925  -74.2325 H         1 UNK         0.1032 
     83 H83       -75.0032   29.8169  -75.8508 H         1 UNK         0.0461 
     84 H84       -72.2385   30.9461  -76.1876 H         1 UNK         0.3453 
     85 H85       -72.5862   32.6197  -76.5528 H         1 UNK         0.3453 
     86 H86       -73.7135   28.2960  -74.9641 H         1 UNK         0.2984 
     87 H87       -70.4665   28.4269  -73.7541 H         1 UNK         0.0554 
     88 H88       -71.1136   26.8613  -71.9280 H         1 UNK         0.0847 
     89 H89       -72.7936   27.3841  -72.0516 H         1 UNK         0.0847 
     90 H90       -71.5552   28.5091  -71.5113 H         1 UNK         0.0847 
     91 H91       -72.7712   26.7192  -74.6402 H         1 UNK         0.3141 
     92 H92       -70.4797   24.5407  -76.3601 H         1 UNK         0.0743 
     93 H93       -72.4236   24.1138  -74.0354 H         1 UNK         0.0784 
     94 H94       -71.7961   22.8693  -75.1146 H         1 UNK         0.0784 
     95 H95       -70.7121   23.7115  -74.0201 H         1 UNK         0.0784 
     96 H96       -73.3225   24.5445  -76.3197 H         1 UNK         0.3213 
     97 H97       -73.6138   26.1331  -79.5506 H         1 UNK         0.0855 
     98 H98       -74.0150   23.2964  -78.4551 H         1 UNK         0.0814 
     99 H99       -72.9844   23.7289  -79.8134 H         1 UNK         0.0814 
    100 H100      -74.7233   23.9529  -79.9274 H         1 UNK         0.0814 
    101 H101      -75.5431   25.0726  -77.6787 H         1 UNK         0.3105 
    102 H102      -76.4328   28.2218  -76.2497 H         1 UNK         0.0547 
    103 H103      -77.8896   26.2891  -78.1169 H         1 UNK         0.0837 
    104 H104      -78.6637   27.3342  -76.9281 H         1 UNK         0.0837 
    105 H105      -77.7999   28.0349  -78.2886 H         1 UNK         0.0837 
    106 H106      -77.4219   25.7132  -75.6064 H         1 UNK         0.3020 
    107 H107      -74.8699   24.5214  -73.4307 H         1 UNK         0.1245 
    108 H108      -77.4922   25.9689  -72.8537 H         1 UNK         0.0781 
    109 H109      -77.2334   24.3847  -72.1683 H         1 UNK         0.0781 
    110 H110      -77.6647   25.6634  -69.9266 H         1 UNK         0.0836 
    111 H111      -76.4276   26.5320  -69.0547 H         1 UNK         0.0836 
    112 H112      -77.3851   23.5059  -74.4014 H         1 UNK         0.3022 
    113 H113      -75.8944   21.5303  -76.9896 H         1 UNK         0.0747 
    114 H114      -77.0188   19.7317  -75.7062 H         1 UNK         0.0793 
    115 H115      -75.5657   20.2493  -74.8686 H         1 UNK         0.0793 
    116 H116      -77.1403   20.7737  -74.2883 H         1 UNK         0.0793 
    117 H117      -78.5895   21.8005  -76.0413 H         1 UNK         0.3047 
    118 H118      -79.5204   24.5028  -78.1622 H         1 UNK         0.0822 
    119 H119      -81.1855   22.8711  -78.9656 H         1 UNK         0.0807 
    120 H120      -80.2666   21.5330  -78.2745 H         1 UNK         0.0807 
    121 H121      -79.6072   22.4621  -79.6136 H         1 UNK         0.0807 
    122 H122      -81.2253   23.1300  -76.5048 H         1 UNK         0.2946 
    123 H123      -82.0826   24.3475  -74.7284 H         1 UNK         0.1144 
    124 H124      -81.6092   23.3333  -72.4832 H         1 UNK         0.0793 
    125 H125      -79.8779   23.3605  -72.8177 H         1 UNK         0.0793 
    126 H126      -80.9457   22.3291  -73.7598 H         1 UNK         0.0793 
    127 H127      -80.5629   25.7122  -72.6817 H         1 UNK         0.2896 
@<TRIPOS>BOND
     1    1    2 1    
     2    1   67 1    
     3    1   68 1    
     4    1   69 1    
     5    2    3 2    
     6    2    4 am   BACKBONE|DICT|INTERRES
     7    4    5 1    
     8    4   70 1    
     9    5    6 1    
    10    5   65 1    
    11    5   71 1    
    12    6    7 1    
    13    6   72 1    
    14    6   73 1    
    15    7    8 1    
    16    8    9 1    
    17    8   74 1    
    18    8   75 1    
    19    9   10 ar   
    20    9   14 ar   
    21   10   11 ar   
    22   10   76 1    
    23   11   12 ar   
    24   11   48 1    
    25   12   13 ar   
    26   12   77 1    
    27   13   14 ar   
    28   13   15 1    
    29   14   78 1    
    30   15   16 1    
    31   15   79 1    
    32   15   80 1    
    33   16   17 1    
    34   17   18 1    
    35   17   81 1    
    36   17   82 1    
    37   18   19 1    
    38   18   22 1    
    39   18   83 1    
    40   19   20 am   BACKBONE|DICT|INTERRES
    41   19   21 2    
    42   20   84 1    
    43   20   85 1    
    44   22   23 am   BACKBONE|DICT|INTERRES
    45   22   86 1    
    46   23   24 2    
    47   23   25 1    
    48   25   26 1    
    49   25   27 1    
    50   25   87 1    
    51   26   88 1    
    52   26   89 1    
    53   26   90 1    
    54   27   28 am   BACKBONE|DICT|INTERRES
    55   27   91 1    
    56   28   29 2    
    57   28   30 1    
    58   30   31 1    
    59   30   32 1    
    60   30   92 1    
    61   31   93 1    
    62   31   94 1    
    63   31   95 1    
    64   32   33 am   BACKBONE|DICT|INTERRES
    65   32   96 1    
    66   33   34 2    
    67   33   35 1    
    68   35   36 1    
    69   35   37 1    
    70   35   97 1    
    71   36   98 1    
    72   36   99 1    
    73   36  100 1    
    74   37   38 am   BACKBONE|DICT|INTERRES
    75   37  101 1    
    76   38   39 2    
    77   38   40 1    
    78   40   41 1    
    79   40   42 1    
    80   40  102 1    
    81   41  103 1    
    82   41  104 1    
    83   41  105 1    
    84   42   43 am   BACKBONE|DICT|INTERRES
    85   42  106 1    
    86   43   44 2    
    87   43   45 1    
    88   45   46 1    
    89   45   49 1    
    90   45  107 1    
    91   46   47 1    
    92   46  108 1    
    93   46  109 1    
    94   47   48 1    
    95   48  110 1    
    96   48  111 1    
    97   49   50 am   BACKBONE|DICT|INTERRES
    98   49  112 1    
    99   50   51 2    
   100   50   52 1    
   101   52   53 1    
   102   52   54 1    
   103   52  113 1    
   104   53  114 1    
   105   53  115 1    
   106   53  116 1    
   107   54   55 am   BACKBONE|DICT|INTERRES
   108   54  117 1    
   109   55   56 2    
   110   55   57 1    
   111   57   58 1    
   112   57   59 1    
   113   57  118 1    
   114   58  119 1    
   115   58  120 1    
   116   58  121 1    
   117   59   60 am   BACKBONE|DICT|INTERRES
   118   59  122 1    
   119   60   61 2    
   120   60   62 1    
   121   62   63 1    
   122   62   64 1    
   123   62  123 1    
   124   63  124 1    
   125   63  125 1    
   126   63  126 1    
   127   64   65 am   BACKBONE|DICT|INTERRES
   128   64  127 1    
   129   65   66 2    
@<TRIPOS>SUBSTRUCTURE
     1 UNK         1 GROUP             0       ****    0 ROOT    
