@<TRIPOS>MOLECULE
3R135
127   129    1
SMALL
USER_CHARGES


@<TRIPOS>ATOM
      1 CA        -82.9592   22.4966  -72.9424 C.3       0 UNK        -0.1998 
      2 C         -82.0173   23.6409  -73.2805 C.2       0 UNK         0.4909 
      3 O         -81.0549   23.4390  -74.0250 O.2       0 UNK        -0.5240 
      4 N         -82.2949   24.8463  -72.7556 N.am      1 UNK        -0.4739 
      5 CA        -81.4914   26.0711  -72.9200 C.3       1 UNK         0.0864 
      6 C6        -80.1446   25.9869  -72.1493 C.3       11 UNK        -0.0881 
      7 S7        -80.3358   26.2974  -70.3660 S.3       11 UNK        -0.2682 
      8 C8        -78.5867   26.3124  -69.8211 C.3       11 UNK         0.0289 
      9 C9        -77.7231   27.4928  -70.2863 C.ar      11 UNK        -0.0687 
     10 C10       -78.2352   28.5832  -71.0039 C.ar      11 UNK        -0.0823 
     11 C11       -77.3992   29.6233  -71.4176 C.ar      11 UNK        -0.0830 
     12 C12       -76.0556   29.6152  -71.0446 C.ar      11 UNK        -0.1021 
     13 C13       -75.5178   28.5326  -70.3476 C.ar      11 UNK        -0.0753 
     14 C14       -76.3571   27.4754  -69.9765 C.ar      11 UNK        -0.0933 
     15 C15       -74.0360   28.5094  -69.9903 C.3       11 UNK         0.0166 
     16 S16       -72.9615   28.3681  -71.4612 S.3       11 UNK        -0.2615 
     17 C17       -72.6724   30.1145  -71.9250 C.3       11 UNK        -0.0865 
     18 CA        -73.3107   30.5027  -73.2922 C.3       10 UNK         0.0862 
     19 C         -73.3541   32.0430  -73.5321 C.2       10 UNK         0.5551 
     20 N         -73.2732   32.5209  -74.7680 N.am      10 UNK        -0.7319 
     21 O         -73.4957   32.8190  -72.5901 O.2       10 UNK        -0.5018 
     22 N         -72.7899   29.7188  -74.4227 N.am      10 UNK        -0.4509 
     23 C         -71.5413   29.7187  -74.9032 C.2       10 UNK         0.4899 
     24 O         -70.6185   30.3935  -74.4430 O.2       10 UNK        -0.4839 
     25 CA        -71.3072   28.7892  -76.1093 C.3       9 UNK         0.0222 
     26 CB        -69.8719   28.8659  -76.6726 C.3       9 UNK        -0.1966 
     27 N         -71.6872   27.4041  -75.8062 N.am      9 UNK        -0.4218 
     28 C         -71.1665   26.6039  -74.8608 C.2       9 UNK         0.5020 
     29 O         -70.2076   26.9106  -74.1506 O.2       9 UNK        -0.5274 
     30 CA        -71.8151   25.2218  -74.6575 C.3       8 UNK         0.0270 
     31 CB        -72.4159   25.1045  -73.2465 C.3       8 UNK        -0.1976 
     32 N         -72.8512   24.9150  -75.6492 N.am      8 UNK        -0.4313 
     33 C         -72.6010   24.3768  -76.8505 C.2       8 UNK         0.5041 
     34 O         -71.4721   24.0770  -77.2420 O.2       8 UNK        -0.5577 
     35 CA        -73.8009   24.1353  -77.7813 C.3       7 UNK         0.0284 
     36 CB        -74.5034   22.8157  -77.4258 C.3       7 UNK        -0.1958 
     37 N         -74.7767   25.2296  -77.8016 N.am      7 UNK        -0.4454 
     38 C         -74.5237   26.4640  -78.2619 C.2       7 UNK         0.5089 
     39 O         -73.4125   26.8468  -78.6274 O.2       7 UNK        -0.5125 
     40 CA        -75.7090   27.4412  -78.3166 C.3       6 UNK         0.0408 
     41 CB        -76.6708   27.0845  -79.4617 C.3       6 UNK        -0.1791 
     42 N         -76.4382   27.4814  -77.0514 N.am      6 UNK        -0.4762 
     43 C         -75.9751   28.0660  -75.9369 C.2       6 UNK         0.5007 
     44 O         -74.9094   28.6789  -75.8838 O.2       6 UNK        -0.5032 
     45 CA        -76.8161   27.8790  -74.6566 C.3       5 UNK         0.0783 
     46 C46       -77.9240   28.9599  -74.5360 C.3       11 UNK        -0.0857 
     47 S47       -77.2928   30.5930  -74.0106 S.3       11 UNK        -0.2512 
     48 C48       -77.9323   30.7374  -72.3054 C.3       11 UNK         0.0225 
     49 N         -77.3564   26.5133  -74.5718 N.am      5 UNK        -0.4615 
     50 C         -76.5888   25.4150  -74.4786 C.2       4 UNK         0.5053 
     51 O         -75.3607   25.4484  -74.4379 O.2       4 UNK        -0.5105 
     52 CA        -77.2711   24.0385  -74.4759 C.3       4 UNK         0.0263 
     53 CB        -77.5209   23.5406  -73.0415 C.3       4 UNK        -0.1981 
     54 N         -78.4888   23.9639  -75.2916 N.am      4 UNK        -0.4224 
     55 C         -78.4749   24.0420  -76.6327 C.2       3 UNK         0.4895 
     56 O         -77.4806   24.3602  -77.2867 O.2       3 UNK        -0.5091 
     57 CA        -79.7726   23.6905  -77.3716 C.3       3 UNK         0.0250 
     58 CB        -80.1076   22.1970  -77.2191 C.3       3 UNK        -0.1996 
     59 N         -80.8811   24.4986  -76.8754 N.am      3 UNK        -0.4254 
     60 C         -81.2909   25.6455  -77.4353 C.2       2 UNK         0.5004 
     61 O         -80.8584   26.0831  -78.5021 O.2       2 UNK        -0.5226 
     62 CA        -82.3523   26.4621  -76.6710 C.3       2 UNK         0.0269 
     63 CB        -83.7557   26.1735  -77.2280 C.3       2 UNK        -0.1926 
     64 N         -82.3558   26.2407  -75.2198 N.am      2 UNK        -0.4687 
     65 C         -81.3085   26.4527  -74.4085 C.2       1 UNK         0.5165 
     66 O         -80.2263   26.8779  -74.8129 O.2       1 UNK        -0.5079 
     67 H67       -83.3982   22.0918  -73.8537 H         1 UNK         0.0900 
     68 H68       -82.4108   21.6978  -72.4441 H         1 UNK         0.0900 
     69 H69       -83.7687   22.8144  -72.2858 H         1 UNK         0.0900 
     70 H70       -83.1052   24.9442  -72.1591 H         1 UNK         0.2959 
     71 H71       -82.0736   26.8918  -72.4974 H         1 UNK         0.1079 
     72 H72       -79.7067   25.0015  -72.2791 H         1 UNK         0.0837 
     73 H73       -79.4068   26.6929  -72.5247 H         1 UNK         0.0837 
     74 H74       -78.5806   26.2995  -68.7304 H         1 UNK         0.0685 
     75 H75       -78.1191   25.3796  -70.1387 H         1 UNK         0.0685 
     76 H76       -79.2814   28.6257  -71.2675 H         1 UNK         0.1434 
     77 H77       -75.4237   30.4429  -71.3278 H         1 UNK         0.1329 
     78 H78       -75.9470   26.6358  -69.4317 H         1 UNK         0.1335 
     79 H79       -73.8230   27.6605  -69.3390 H         1 UNK         0.0680 
     80 H80       -73.7796   29.3982  -69.4126 H         1 UNK         0.0680 
     81 H81       -73.0502   30.7540  -71.1265 H         1 UNK         0.1032 
     82 H82       -71.5961   30.2902  -71.9473 H         1 UNK         0.1032 
     83 H83       -74.3603   30.2186  -73.2514 H         1 UNK         0.0461 
     84 H84       -73.3135   33.5165  -74.9182 H         1 UNK         0.3453 
     85 H85       -73.1799   31.8930  -75.5499 H         1 UNK         0.3453 
     86 H86       -73.4959   29.1819  -74.9244 H         1 UNK         0.2984 
     87 H87       -71.9852   29.1240  -76.8960 H         1 UNK         0.0554 
     88 H88       -69.6344   29.8814  -76.9915 H         1 UNK         0.0847 
     89 H89       -69.7520   28.2170  -77.5401 H         1 UNK         0.0847 
     90 H90       -69.1255   28.5775  -75.9320 H         1 UNK         0.0847 
     91 H91       -72.4660   27.0431  -76.3409 H         1 UNK         0.3141 
     92 H92       -71.0176   24.4800  -74.7369 H         1 UNK         0.0743 
     93 H93       -71.6506   25.2416  -72.4815 H         1 UNK         0.0784 
     94 H94       -73.1825   25.8596  -73.0729 H         1 UNK         0.0784 
     95 H95       -72.8668   24.1255  -73.0842 H         1 UNK         0.0784 
     96 H96       -73.8120   25.1208  -75.3745 H         1 UNK         0.3213 
     97 H97       -73.4082   24.0389  -78.7960 H         1 UNK         0.0855 
     98 H98       -74.9046   22.8335  -76.4135 H         1 UNK         0.0814 
     99 H99       -73.8084   21.9771  -77.4845 H         1 UNK         0.0814 
    100 H100      -75.3254   22.6041  -78.1100 H         1 UNK         0.0814 
    101 H101      -75.7320   24.9947  -77.5380 H         1 UNK         0.3105 
    102 H102      -75.3115   28.4391  -78.5152 H         1 UNK         0.0547 
    103 H103      -77.4712   27.8191  -79.5495 H         1 UNK         0.0837 
    104 H104      -76.1459   27.0629  -80.4176 H         1 UNK         0.0837 
    105 H105      -77.1313   26.1060  -79.3218 H         1 UNK         0.0837 
    106 H106      -77.2933   26.9454  -76.9967 H         1 UNK         0.3020 
    107 H107      -76.1372   27.9939  -73.8073 H         1 UNK         0.1245 
    108 H108      -78.6703   28.6474  -73.8075 H         1 UNK         0.0781 
    109 H109      -78.4693   29.0736  -75.4750 H         1 UNK         0.0781 
    110 H110      -79.0233   30.7348  -72.3273 H         1 UNK         0.0836 
    111 H111      -77.6358   31.7034  -71.8944 H         1 UNK         0.0836 
    112 H112      -78.3661   26.4226  -74.6459 H         1 UNK         0.3022 
    113 H113      -76.5694   23.3355  -74.9270 H         1 UNK         0.0747 
    114 H114      -78.3969   22.8955  -72.9680 H         1 UNK         0.0793 
    115 H115      -76.6653   22.9620  -72.6919 H         1 UNK         0.0793 
    116 H116      -77.6366   24.3609  -72.3345 H         1 UNK         0.0793 
    117 H117      -79.3572   23.7252  -74.8174 H         1 UNK         0.3047 
    118 H118      -79.6125   23.8857  -78.4344 H         1 UNK         0.0822 
    119 H119      -79.2841   21.5752  -77.5730 H         1 UNK         0.0807 
    120 H120      -80.9882   21.9304  -77.8036 H         1 UNK         0.0807 
    121 H121      -80.3020   21.9217  -76.1819 H         1 UNK         0.0807 
    122 H122      -81.2582   24.2383  -75.9714 H         1 UNK         0.2946 
    123 H123      -82.1229   27.5165  -76.8408 H         1 UNK         0.1144 
    124 H124      -84.5064   26.8164  -76.7681 H         1 UNK         0.0793 
    125 H125      -84.0508   25.1368  -77.0607 H         1 UNK         0.0793 
    126 H126      -83.7936   26.3536  -78.3035 H         1 UNK         0.0793 
    127 H127      -83.2035   25.8678  -74.8165 H         1 UNK         0.2896 
@<TRIPOS>BOND
     1    1    2 1    
     2    1   67 1    
     3    1   68 1    
     4    1   69 1    
     5    2    3 2    
     6    2    4 am   BACKBONE|DICT|INTERRES
     7    4    5 1    
     8    4   70 1    
     9    5    6 1    
    10    5   65 1    
    11    5   71 1    
    12    6    7 1    
    13    6   72 1    
    14    6   73 1    
    15    7    8 1    
    16    8    9 1    
    17    8   74 1    
    18    8   75 1    
    19    9   10 ar   
    20    9   14 ar   
    21   10   11 ar   
    22   10   76 1    
    23   11   12 ar   
    24   11   48 1    
    25   12   13 ar   
    26   12   77 1    
    27   13   14 ar   
    28   13   15 1    
    29   14   78 1    
    30   15   16 1    
    31   15   79 1    
    32   15   80 1    
    33   16   17 1    
    34   17   18 1    
    35   17   81 1    
    36   17   82 1    
    37   18   19 1    
    38   18   22 1    
    39   18   83 1    
    40   19   20 am   BACKBONE|DICT|INTERRES
    41   19   21 2    
    42   20   84 1    
    43   20   85 1    
    44   22   23 am   BACKBONE|DICT|INTERRES
    45   22   86 1    
    46   23   24 2    
    47   23   25 1    
    48   25   26 1    
    49   25   27 1    
    50   25   87 1    
    51   26   88 1    
    52   26   89 1    
    53   26   90 1    
    54   27   28 am   BACKBONE|DICT|INTERRES
    55   27   91 1    
    56   28   29 2    
    57   28   30 1    
    58   30   31 1    
    59   30   32 1    
    60   30   92 1    
    61   31   93 1    
    62   31   94 1    
    63   31   95 1    
    64   32   33 am   BACKBONE|DICT|INTERRES
    65   32   96 1    
    66   33   34 2    
    67   33   35 1    
    68   35   36 1    
    69   35   37 1    
    70   35   97 1    
    71   36   98 1    
    72   36   99 1    
    73   36  100 1    
    74   37   38 am   BACKBONE|DICT|INTERRES
    75   37  101 1    
    76   38   39 2    
    77   38   40 1    
    78   40   41 1    
    79   40   42 1    
    80   40  102 1    
    81   41  103 1    
    82   41  104 1    
    83   41  105 1    
    84   42   43 am   BACKBONE|DICT|INTERRES
    85   42  106 1    
    86   43   44 2    
    87   43   45 1    
    88   45   46 1    
    89   45   49 1    
    90   45  107 1    
    91   46   47 1    
    92   46  108 1    
    93   46  109 1    
    94   47   48 1    
    95   48  110 1    
    96   48  111 1    
    97   49   50 am   BACKBONE|DICT|INTERRES
    98   49  112 1    
    99   50   51 2    
   100   50   52 1    
   101   52   53 1    
   102   52   54 1    
   103   52  113 1    
   104   53  114 1    
   105   53  115 1    
   106   53  116 1    
   107   54   55 am   BACKBONE|DICT|INTERRES
   108   54  117 1    
   109   55   56 2    
   110   55   57 1    
   111   57   58 1    
   112   57   59 1    
   113   57  118 1    
   114   58  119 1    
   115   58  120 1    
   116   58  121 1    
   117   59   60 am   BACKBONE|DICT|INTERRES
   118   59  122 1    
   119   60   61 2    
   120   60   62 1    
   121   62   63 1    
   122   62   64 1    
   123   62  123 1    
   124   63  124 1    
   125   63  125 1    
   126   63  126 1    
   127   64   65 am   BACKBONE|DICT|INTERRES
   128   64  127 1    
   129   65   66 2    
@<TRIPOS>SUBSTRUCTURE
     1 UNK         1 GROUP             0       ****    0 ROOT    
