@<TRIPOS>MOLECULE
3R135
127   129    1
SMALL
USER_CHARGES


@<TRIPOS>ATOM
      1 CA        -83.1422   28.4043  -72.5119 C.3       0 UNK        -0.1998 
      2 C         -83.5640   27.0914  -71.8560 C.2       0 UNK         0.4909 
      3 O         -84.7073   26.9753  -71.4193 O.2       0 UNK        -0.5240 
      4 N         -82.6903   26.0782  -71.7548 N.am      1 UNK        -0.4739 
      5 CA        -81.3115   26.0435  -72.2639 C.3       1 UNK         0.0864 
      6 C6        -80.4539   25.0327  -71.4569 C.3       11 UNK        -0.0881 
      7 S7        -78.6669   25.4086  -71.4813 S.3       11 UNK        -0.2682 
      8 C8        -78.5084   26.6724  -70.1825 C.3       11 UNK         0.0289 
      9 C9        -77.6783   27.8445  -70.6825 C.ar      11 UNK        -0.0687 
     10 C10       -78.2202   28.7148  -71.6301 C.ar      11 UNK        -0.0823 
     11 C11       -77.4715   29.7821  -72.1253 C.ar      11 UNK        -0.0830 
     12 C12       -76.1926   30.0180  -71.6182 C.ar      11 UNK        -0.1021 
     13 C13       -75.6232   29.1425  -70.6893 C.ar      11 UNK        -0.0753 
     14 C14       -76.3724   28.0539  -70.2248 C.ar      11 UNK        -0.0933 
     15 C15       -74.2022   29.3723  -70.1896 C.3       11 UNK         0.0166 
     16 S16       -72.9499   29.0351  -71.4759 S.3       11 UNK        -0.2615 
     17 C17       -72.7926   30.6522  -72.3178 C.3       11 UNK        -0.0865 
     18 CA        -73.3606   30.6515  -73.7685 C.3       10 UNK         0.0862 
     19 C         -73.5325   32.0853  -74.3572 C.2       10 UNK         0.5551 
     20 N         -73.3832   32.2874  -75.6609 N.am      10 UNK        -0.7319 
     21 O         -73.8393   33.0265  -73.6296 O.2       10 UNK        -0.5018 
     22 N         -72.6856   29.6952  -74.6589 N.am      10 UNK        -0.4509 
     23 C         -71.4104   29.7226  -75.0660 C.2       10 UNK         0.4899 
     24 O         -70.5917   30.5774  -74.7235 O.2       10 UNK        -0.4839 
     25 CA        -71.0018   28.5974  -76.0368 C.3       9 UNK         0.0222 
     26 CB        -69.4886   28.5650  -76.3405 C.3       9 UNK        -0.1966 
     27 N         -71.4904   27.2871  -75.5928 N.am      9 UNK        -0.4218 
     28 C         -71.1583   26.6278  -74.4714 C.2       9 UNK         0.5020 
     29 O         -70.2843   26.9989  -73.6865 O.2       9 UNK        -0.5274 
     30 CA        -71.9381   25.3387  -74.1486 C.3       8 UNK         0.0270 
     31 CB        -72.8496   25.5635  -72.9300 C.3       8 UNK        -0.1976 
     32 N         -72.7514   24.8442  -75.2634 N.am      8 UNK        -0.4313 
     33 C         -72.2726   24.2057  -76.3397 C.2       8 UNK         0.5041 
     34 O         -71.0848   23.9190  -76.4929 O.2       8 UNK        -0.5577 
     35 CA        -73.2837   23.8512  -77.4457 C.3       7 UNK         0.0284 
     36 CB        -74.0193   22.5453  -77.1086 C.3       7 UNK        -0.1958 
     37 N         -74.2553   24.9202  -77.7052 N.am      7 UNK        -0.4454 
     38 C         -73.9357   26.1314  -78.1854 C.2       7 UNK         0.5089 
     39 O         -72.7884   26.4798  -78.4628 O.2       7 UNK        -0.5125 
     40 CA        -75.0815   27.1419  -78.3484 C.3       6 UNK         0.0408 
     41 CB        -75.8341   26.9149  -79.6688 C.3       6 UNK        -0.1791 
     42 N         -76.0180   27.1071  -77.2245 N.am      6 UNK        -0.4762 
     43 C         -75.7182   27.5230  -75.9847 C.2       6 UNK         0.5007 
     44 O         -74.6174   27.9733  -75.6674 O.2       6 UNK        -0.5032 
     45 CA        -76.8200   27.3619  -74.9142 C.3       5 UNK         0.0783 
     46 C46       -77.9227   28.4465  -75.0697 C.3       11 UNK        -0.0857 
     47 S47       -77.3273   30.1664  -74.8556 S.3       11 UNK        -0.2512 
     48 C48       -78.0274   30.6486  -73.2424 C.3       11 UNK         0.0225 
     49 N         -77.3906   26.0055  -74.9302 N.am      5 UNK        -0.4615 
     50 C         -76.6888   24.8651  -74.8181 C.2       4 UNK         0.5053 
     51 O         -75.4821   24.8287  -74.5874 O.2       4 UNK        -0.5105 
     52 CA        -77.4145   23.5349  -75.0926 C.3       4 UNK         0.0263 
     53 CB        -77.9630   22.8944  -73.8115 C.3       4 UNK        -0.1981 
     54 N         -78.4855   23.6373  -76.0795 N.am      4 UNK        -0.4224 
     55 C         -78.3452   24.0025  -77.3579 C.2       3 UNK         0.4895 
     56 O         -77.2589   24.2826  -77.8672 O.2       3 UNK        -0.5091 
     57 CA        -79.6294   24.1069  -78.2045 C.3       3 UNK         0.0250 
     58 CB        -79.9826   22.7489  -78.8410 C.3       3 UNK        -0.1996 
     59 N         -80.7831   24.6947  -77.4984 N.am      3 UNK        -0.4254 
     60 C         -81.4618   24.2133  -76.4450 C.2       2 UNK         0.5004 
     61 O         -81.2479   23.1175  -75.9211 O.2       2 UNK        -0.5226 
     62 CA        -82.5289   25.1372  -75.8357 C.3       2 UNK         0.0269 
     63 CB        -83.9396   24.5903  -76.1070 C.3       2 UNK        -0.1926 
     64 N         -82.3500   25.3199  -74.3901 N.am      2 UNK        -0.4687 
     65 C         -81.2501   25.8096  -73.7941 C.2       1 UNK         0.5165 
     66 O         -80.2362   26.1309  -74.4144 O.2       1 UNK        -0.5079 
     67 H67       -83.9772   29.1046  -72.5298 H         1 UNK         0.0900 
     68 H68       -82.3321   28.8748  -71.9557 H         1 UNK         0.0900 
     69 H69       -82.8235   28.2498  -73.5418 H         1 UNK         0.0900 
     70 H70       -83.0025   25.2290  -71.3044 H         1 UNK         0.2959 
     71 H71       -80.8837   27.0304  -72.0949 H         1 UNK         0.1079 
     72 H72       -80.6080   24.0143  -71.8182 H         1 UNK         0.0837 
     73 H73       -80.7658   25.0185  -70.4110 H         1 UNK         0.0837 
     74 H74       -79.4912   27.0347  -69.8776 H         1 UNK         0.0685 
     75 H75       -78.0565   26.2214  -69.2979 H         1 UNK         0.0685 
     76 H76       -79.2156   28.5409  -72.0095 H         1 UNK         0.1434 
     77 H77       -75.6289   30.8664  -71.9761 H         1 UNK         0.1329 
     78 H78       -75.9408   27.3708  -69.5061 H         1 UNK         0.1335 
     79 H79       -73.9959   28.7188  -69.3407 H         1 UNK         0.0680 
     80 H80       -74.0996   30.3903  -69.8117 H         1 UNK         0.0680 
     81 H81       -73.2863   31.4106  -71.7091 H         1 UNK         0.1032 
     82 H82       -71.7389   30.9337  -72.3258 H         1 UNK         0.1032 
     83 H83       -74.3790   30.2708  -73.7186 H         1 UNK         0.0461 
     84 H84       -73.1508   31.5202  -76.2702 H         1 UNK         0.3453 
     85 H85       -73.5076   33.2143  -76.0360 H         1 UNK         0.3453 
     86 H86       -73.2955   28.9648  -75.0251 H         1 UNK         0.2984 
     87 H87       -71.5175   28.8042  -76.9757 H         1 UNK         0.0554 
     88 H88       -69.1642   29.5006  -76.7975 H         1 UNK         0.0847 
     89 H89       -69.2410   27.7624  -77.0351 H         1 UNK         0.0847 
     90 H90       -68.8936   28.4242  -75.4378 H         1 UNK         0.0847 
     91 H91       -72.2245   26.8865  -76.1624 H         1 UNK         0.3141 
     92 H92       -71.2059   24.5711  -73.8898 H         1 UNK         0.0743 
     93 H93       -73.6009   26.3300  -73.1278 H         1 UNK         0.0784 
     94 H94       -73.3710   24.6488  -72.6477 H         1 UNK         0.0784 
     95 H95       -72.2740   25.8900  -72.0628 H         1 UNK         0.0784 
     96 H96       -73.7594   24.9754  -75.1764 H         1 UNK         0.3213 
     97 H97       -72.7223   23.6934  -78.3692 H         1 UNK         0.0855 
     98 H98       -74.5095   22.5997  -76.1375 H         1 UNK         0.0814 
     99 H99       -73.3202   21.7090  -77.0679 H         1 UNK         0.0814 
    100 H100      -74.7738   22.3029  -77.8575 H         1 UNK         0.0814 
    101 H101      -75.2348   24.7147  -77.5355 H         1 UNK         0.3105 
    102 H102      -74.6402   28.1405  -78.3839 H         1 UNK         0.0547 
    103 H103      -75.1540   26.9844  -80.5188 H         1 UNK         0.0837 
    104 H104      -76.3025   25.9314  -79.7097 H         1 UNK         0.0837 
    105 H105      -76.6120   27.6640  -79.8164 H         1 UNK         0.0837 
    106 H106      -76.9162   26.6750  -77.3901 H         1 UNK         0.3020 
    107 H107      -76.3460   27.4932  -73.9383 H         1 UNK         0.1245 
    108 H108      -78.7236   28.2654  -74.3544 H         1 UNK         0.0781 
    109 H109      -78.3943   28.3720  -76.0511 H         1 UNK         0.0781 
    110 H110      -79.1160   30.5856  -73.2831 H         1 UNK         0.0836 
    111 H111      -77.7879   31.6953  -73.0490 H         1 UNK         0.0836 
    112 H112      -78.4011   25.9449  -75.0184 H         1 UNK         0.3022 
    113 H113      -76.6716   22.8510  -75.5032 H         1 UNK         0.0747 
    114 H114      -78.1979   21.8419  -73.9696 H         1 UNK         0.0793 
    115 H115      -77.2390   22.9473  -72.9970 H         1 UNK         0.0793 
    116 H116      -78.8762   23.3868  -73.4814 H         1 UNK         0.0793 
    117 H117      -79.4274   23.4100  -75.7691 H         1 UNK         0.3047 
    118 H118      -79.4014   24.7970  -79.0187 H         1 UNK         0.0822 
    119 H119      -80.8494   22.8319  -79.4966 H         1 UNK         0.0807 
    120 H120      -80.2008   21.9880  -78.0912 H         1 UNK         0.0807 
    121 H121      -79.1538   22.3772  -79.4451 H         1 UNK         0.0807 
    122 H122      -81.0358   25.6183  -77.8227 H         1 UNK         0.2946 
    123 H123      -82.4481   26.1229  -76.2992 H         1 UNK         0.1144 
    124 H124      -84.7082   25.2687  -75.7360 H         1 UNK         0.0793 
    125 H125      -84.0922   23.6184  -75.6355 H         1 UNK         0.0793 
    126 H126      -84.1104   24.4633  -77.1770 H         1 UNK         0.0793 
    127 H127      -83.1331   25.0714  -73.8033 H         1 UNK         0.2896 
@<TRIPOS>BOND
     1    1    2 1    
     2    1   67 1    
     3    1   68 1    
     4    1   69 1    
     5    2    3 2    
     6    2    4 am   BACKBONE|DICT|INTERRES
     7    4    5 1    
     8    4   70 1    
     9    5    6 1    
    10    5   65 1    
    11    5   71 1    
    12    6    7 1    
    13    6   72 1    
    14    6   73 1    
    15    7    8 1    
    16    8    9 1    
    17    8   74 1    
    18    8   75 1    
    19    9   10 ar   
    20    9   14 ar   
    21   10   11 ar   
    22   10   76 1    
    23   11   12 ar   
    24   11   48 1    
    25   12   13 ar   
    26   12   77 1    
    27   13   14 ar   
    28   13   15 1    
    29   14   78 1    
    30   15   16 1    
    31   15   79 1    
    32   15   80 1    
    33   16   17 1    
    34   17   18 1    
    35   17   81 1    
    36   17   82 1    
    37   18   19 1    
    38   18   22 1    
    39   18   83 1    
    40   19   20 am   BACKBONE|DICT|INTERRES
    41   19   21 2    
    42   20   84 1    
    43   20   85 1    
    44   22   23 am   BACKBONE|DICT|INTERRES
    45   22   86 1    
    46   23   24 2    
    47   23   25 1    
    48   25   26 1    
    49   25   27 1    
    50   25   87 1    
    51   26   88 1    
    52   26   89 1    
    53   26   90 1    
    54   27   28 am   BACKBONE|DICT|INTERRES
    55   27   91 1    
    56   28   29 2    
    57   28   30 1    
    58   30   31 1    
    59   30   32 1    
    60   30   92 1    
    61   31   93 1    
    62   31   94 1    
    63   31   95 1    
    64   32   33 am   BACKBONE|DICT|INTERRES
    65   32   96 1    
    66   33   34 2    
    67   33   35 1    
    68   35   36 1    
    69   35   37 1    
    70   35   97 1    
    71   36   98 1    
    72   36   99 1    
    73   36  100 1    
    74   37   38 am   BACKBONE|DICT|INTERRES
    75   37  101 1    
    76   38   39 2    
    77   38   40 1    
    78   40   41 1    
    79   40   42 1    
    80   40  102 1    
    81   41  103 1    
    82   41  104 1    
    83   41  105 1    
    84   42   43 am   BACKBONE|DICT|INTERRES
    85   42  106 1    
    86   43   44 2    
    87   43   45 1    
    88   45   46 1    
    89   45   49 1    
    90   45  107 1    
    91   46   47 1    
    92   46  108 1    
    93   46  109 1    
    94   47   48 1    
    95   48  110 1    
    96   48  111 1    
    97   49   50 am   BACKBONE|DICT|INTERRES
    98   49  112 1    
    99   50   51 2    
   100   50   52 1    
   101   52   53 1    
   102   52   54 1    
   103   52  113 1    
   104   53  114 1    
   105   53  115 1    
   106   53  116 1    
   107   54   55 am   BACKBONE|DICT|INTERRES
   108   54  117 1    
   109   55   56 2    
   110   55   57 1    
   111   57   58 1    
   112   57   59 1    
   113   57  118 1    
   114   58  119 1    
   115   58  120 1    
   116   58  121 1    
   117   59   60 am   BACKBONE|DICT|INTERRES
   118   59  122 1    
   119   60   61 2    
   120   60   62 1    
   121   62   63 1    
   122   62   64 1    
   123   62  123 1    
   124   63  124 1    
   125   63  125 1    
   126   63  126 1    
   127   64   65 am   BACKBONE|DICT|INTERRES
   128   64  127 1    
   129   65   66 2    
@<TRIPOS>SUBSTRUCTURE
     1 UNK         1 GROUP             0       ****    0 ROOT    
