@<TRIPOS>MOLECULE
3R135
127   129    1
SMALL
USER_CHARGES


@<TRIPOS>ATOM
      1 CA        -78.7842   30.5683  -75.7332 C.3       0 UNK        -0.1998 
      2 C         -79.1289   29.3269  -74.9246 C.2       0 UNK         0.4909 
      3 O         -78.3537   28.3731  -74.9156 O.2       0 UNK        -0.5240 
      4 N         -80.2799   29.3381  -74.2408 N.am      1 UNK        -0.4739 
      5 CA        -80.7666   28.2294  -73.4129 C.3       1 UNK         0.0864 
      6 C6        -81.8850   28.6715  -72.4315 C.3       11 UNK        -0.0881 
      7 S7        -81.4902   30.1713  -71.4664 S.3       11 UNK        -0.2682 
      8 C8        -80.7472   29.4814  -69.9540 C.3       11 UNK         0.0289 
      9 C9        -79.3277   28.9878  -70.1932 C.ar      11 UNK        -0.0687 
     10 C10       -79.0267   27.6248  -70.1133 C.ar      11 UNK        -0.0823 
     11 C11       -77.7222   27.1736  -70.3379 C.ar      11 UNK        -0.0830 
     12 C12       -76.7117   28.0986  -70.6223 C.ar      11 UNK        -0.1021 
     13 C13       -77.0007   29.4627  -70.7042 C.ar      11 UNK        -0.0753 
     14 C14       -78.3100   29.9013  -70.4871 C.ar      11 UNK        -0.0933 
     15 C15       -75.8965   30.4636  -71.0073 C.3       11 UNK         0.0166 
     16 S16       -75.5470   30.5740  -72.7924 S.3       11 UNK        -0.2615 
     17 C17       -74.4149   32.0106  -72.8151 C.3       11 UNK        -0.0865 
     18 CA        -72.9134   31.6845  -73.0430 C.3       10 UNK         0.0862 
     19 C         -72.3006   30.7719  -71.9410 C.2       10 UNK         0.5551 
     20 N         -72.1742   31.2801  -70.7221 N.am      10 UNK        -0.7319 
     21 O         -71.9548   29.6138  -72.1684 O.2       10 UNK        -0.5018 
     22 N         -72.6536   31.2107  -74.4108 N.am      10 UNK        -0.4509 
     23 C         -71.4631   31.2982  -75.0166 C.2       10 UNK         0.4899 
     24 O         -70.4678   31.8153  -74.5050 O.2       10 UNK        -0.4839 
     25 CA        -71.3617   30.6913  -76.4239 C.3       9 UNK         0.0222 
     26 CB        -70.2726   31.3708  -77.2756 C.3       9 UNK        -0.1966 
     27 N         -71.0606   29.2659  -76.3132 N.am      9 UNK        -0.4218 
     28 C         -71.9839   28.3029  -76.2271 C.2       9 UNK         0.5020 
     29 O         -73.1978   28.5136  -76.2824 O.2       9 UNK        -0.5274 
     30 CA        -71.4553   26.8775  -76.0139 C.3       8 UNK         0.0270 
     31 CB        -71.3394   26.5742  -74.5107 C.3       8 UNK        -0.1976 
     32 N         -72.3796   25.9225  -76.6199 N.am      8 UNK        -0.4313 
     33 C         -72.1611   25.2449  -77.7556 C.2       8 UNK         0.5041 
     34 O         -71.0947   25.2732  -78.3725 O.2       8 UNK        -0.5577 
     35 CA        -73.3175   24.3892  -78.3146 C.3       7 UNK         0.0284 
     36 CB        -73.1359   22.9143  -77.9211 C.3       7 UNK        -0.1958 
     37 N         -74.6367   24.8389  -77.8702 N.am      7 UNK        -0.4454 
     38 C         -75.2048   26.0058  -78.2022 C.2       7 UNK         0.5089 
     39 O         -74.7592   26.7550  -79.0723 O.2       7 UNK        -0.5125 
     40 CA        -76.4678   26.4243  -77.4244 C.3       6 UNK         0.0408 
     41 CB        -77.7069   26.3632  -78.3316 C.3       6 UNK        -0.1791 
     42 N         -76.7415   25.6544  -76.2054 N.am      6 UNK        -0.4762 
     43 C         -75.9486   25.5365  -75.1290 C.2       6 UNK         0.5007 
     44 O         -74.8085   25.9913  -75.0555 O.2       6 UNK        -0.5032 
     45 CA        -76.5159   24.7256  -73.9527 C.3       5 UNK         0.0783 
     46 C46       -77.4707   25.6153  -73.1255 C.3       11 UNK        -0.0857 
     47 S47       -78.1809   24.7765  -71.6698 S.3       11 UNK        -0.2512 
     48 C48       -77.4047   25.6846  -70.2927 C.3       11 UNK         0.0225 
     49 N         -77.1566   23.5006  -74.4386 N.am      5 UNK        -0.4615 
     50 C         -76.4994   22.4176  -74.8740 C.2       4 UNK         0.5053 
     51 O         -75.2730   22.3156  -74.8647 O.2       4 UNK        -0.5105 
     52 CA        -77.3459   21.2513  -75.4159 C.3       4 UNK         0.0263 
     53 CB        -77.6701   20.2580  -74.2885 C.3       4 UNK        -0.1981 
     54 N         -78.5935   21.6940  -76.0431 N.am      4 UNK        -0.4224 
     55 C         -78.6702   22.3146  -77.2296 C.2       3 UNK         0.4895 
     56 O         -77.7040   22.5047  -77.9686 O.2       3 UNK        -0.5091 
     57 CA        -80.0567   22.8476  -77.6442 C.3       3 UNK         0.0250 
     58 CB        -80.8286   21.7814  -78.4378 C.3       3 UNK        -0.1996 
     59 N         -80.8809   23.3153  -76.5190 N.am      3 UNK        -0.4254 
     60 C         -80.5193   24.2887  -75.6714 C.2       2 UNK         0.5004 
     61 O         -79.4418   24.8787  -75.7507 O.2       2 UNK        -0.5226 
     62 CA        -81.4805   24.5977  -74.5090 C.3       2 UNK         0.0269 
     63 CB        -81.4878   23.4393  -73.4958 C.3       2 UNK        -0.1926 
     64 N         -81.1118   25.8287  -73.8011 N.am      2 UNK        -0.4687 
     65 C         -81.2705   27.0649  -74.2925 C.2       1 UNK         0.5165 
     66 O         -81.8403   27.3048  -75.3614 O.2       1 UNK        -0.5079 
     67 H67       -79.5552   31.3344  -75.6541 H         1 UNK         0.0900 
     68 H68       -77.8449   30.9931  -75.3793 H         1 UNK         0.0900 
     69 H69       -78.6670   30.3092  -76.7851 H         1 UNK         0.0900 
     70 H70       -80.8862   30.1438  -74.2876 H         1 UNK         0.2959 
     71 H71       -79.9182   27.8677  -72.8280 H         1 UNK         0.1079 
     72 H72       -82.1300   27.8602  -71.7434 H         1 UNK         0.0837 
     73 H73       -82.8054   28.8831  -72.9799 H         1 UNK         0.0837 
     74 H74       -80.7247   30.2598  -69.1900 H         1 UNK         0.0685 
     75 H75       -81.3831   28.6870  -69.5603 H         1 UNK         0.0685 
     76 H76       -79.8077   26.9102  -69.8915 H         1 UNK         0.1434 
     77 H77       -75.7000   27.7587  -70.7979 H         1 UNK         0.1329 
     78 H78       -78.5421   30.9557  -70.5510 H         1 UNK         0.1335 
     79 H79       -74.9863   30.1793  -70.4773 H         1 UNK         0.0680 
     80 H80       -76.1782   31.4478  -70.6297 H         1 UNK         0.0680 
     81 H81       -74.7575   32.6863  -73.6003 H         1 UNK         0.1032 
     82 H82       -74.5312   32.5805  -71.8919 H         1 UNK         0.1032 
     83 H83       -72.3887   32.6383  -72.9527 H         1 UNK         0.0461 
     84 H84       -72.4419   32.2303  -70.5191 H         1 UNK         0.3453 
     85 H85       -71.7829   30.7050  -69.9927 H         1 UNK         0.3453 
     86 H86       -73.3964   30.6882  -74.8556 H         1 UNK         0.2984 
     87 H87       -72.3167   30.8381  -76.9334 H         1 UNK         0.0554 
     88 H88       -70.4566   32.4428  -77.3583 H         1 UNK         0.0847 
     89 H89       -70.2541   30.9675  -78.2882 H         1 UNK         0.0847 
     90 H90       -69.2775   31.2434  -76.8475 H         1 UNK         0.0847 
     91 H91       -70.0863   29.0193  -76.2091 H         1 UNK         0.3141 
     92 H92       -70.4649   26.7927  -76.4660 H         1 UNK         0.0743 
     93 H93       -72.3007   26.6754  -74.0042 H         1 UNK         0.0784 
     94 H94       -70.9744   25.5618  -74.3373 H         1 UNK         0.0784 
     95 H95       -70.6443   27.2597  -74.0239 H         1 UNK         0.0784 
     96 H96       -73.3094   25.9091  -76.2029 H         1 UNK         0.3213 
     97 H97       -73.2851   24.4633  -79.4037 H         1 UNK         0.0855 
     98 H98       -73.1718   22.7784  -76.8391 H         1 UNK         0.0814 
     99 H99       -72.1735   22.5340  -78.2662 H         1 UNK         0.0814 
    100 H100      -73.9098   22.2865  -78.3635 H         1 UNK         0.0814 
    101 H101      -75.0922   24.2869  -77.1573 H         1 UNK         0.3105 
    102 H102      -76.3208   27.4616  -77.1168 H         1 UNK         0.0547 
    103 H103      -77.5681   26.9678  -79.2288 H         1 UNK         0.0837 
    104 H104      -77.9168   25.3424  -78.6527 H         1 UNK         0.0837 
    105 H105      -78.5911   26.7429  -77.8185 H         1 UNK         0.0837 
    106 H106      -77.6855   25.2786  -76.1254 H         1 UNK         0.3020 
    107 H107      -75.6759   24.4428  -73.3137 H         1 UNK         0.1245 
    108 H108      -78.2999   25.9651  -73.7387 H         1 UNK         0.0781 
    109 H109      -76.9470   26.5199  -72.8171 H         1 UNK         0.0781 
    110 H110      -76.3273   25.5140  -70.3172 H         1 UNK         0.0836 
    111 H111      -77.7590   25.2688  -69.3485 H         1 UNK         0.0836 
    112 H112      -78.1603   23.5439  -74.5418 H         1 UNK         0.3022 
    113 H113      -76.7490   20.7315  -76.1687 H         1 UNK         0.0747 
    114 H114      -78.2100   19.3898  -74.6670 H         1 UNK         0.0793 
    115 H115      -76.7563   19.8900  -73.8196 H         1 UNK         0.0793 
    116 H116      -78.2755   20.7169  -73.5056 H         1 UNK         0.0793 
    117 H117      -79.4435   21.5652  -75.5144 H         1 UNK         0.3047 
    118 H118      -79.8882   23.7042  -78.3003 H         1 UNK         0.0822 
    119 H119      -81.7660   22.1777  -78.8285 H         1 UNK         0.0807 
    120 H120      -81.0607   20.9092  -77.8253 H         1 UNK         0.0807 
    121 H121      -80.2460   21.4336  -79.2923 H         1 UNK         0.0807 
    122 H122      -81.7754   22.8626  -76.3939 H         1 UNK         0.2946 
    123 H123      -82.4847   24.7205  -74.9213 H         1 UNK         0.1144 
    124 H124      -82.1600   23.6466  -72.6629 H         1 UNK         0.0793 
    125 H125      -80.4948   23.2545  -73.0842 H         1 UNK         0.0793 
    126 H126      -81.8285   22.5104  -73.9546 H         1 UNK         0.0793 
    127 H127      -80.6168   25.7081  -72.9292 H         1 UNK         0.2896 
@<TRIPOS>BOND
     1    1    2 1    
     2    1   67 1    
     3    1   68 1    
     4    1   69 1    
     5    2    3 2    
     6    2    4 am   BACKBONE|DICT|INTERRES
     7    4    5 1    
     8    4   70 1    
     9    5    6 1    
    10    5   65 1    
    11    5   71 1    
    12    6    7 1    
    13    6   72 1    
    14    6   73 1    
    15    7    8 1    
    16    8    9 1    
    17    8   74 1    
    18    8   75 1    
    19    9   10 ar   
    20    9   14 ar   
    21   10   11 ar   
    22   10   76 1    
    23   11   12 ar   
    24   11   48 1    
    25   12   13 ar   
    26   12   77 1    
    27   13   14 ar   
    28   13   15 1    
    29   14   78 1    
    30   15   16 1    
    31   15   79 1    
    32   15   80 1    
    33   16   17 1    
    34   17   18 1    
    35   17   81 1    
    36   17   82 1    
    37   18   19 1    
    38   18   22 1    
    39   18   83 1    
    40   19   20 am   BACKBONE|DICT|INTERRES
    41   19   21 2    
    42   20   84 1    
    43   20   85 1    
    44   22   23 am   BACKBONE|DICT|INTERRES
    45   22   86 1    
    46   23   24 2    
    47   23   25 1    
    48   25   26 1    
    49   25   27 1    
    50   25   87 1    
    51   26   88 1    
    52   26   89 1    
    53   26   90 1    
    54   27   28 am   BACKBONE|DICT|INTERRES
    55   27   91 1    
    56   28   29 2    
    57   28   30 1    
    58   30   31 1    
    59   30   32 1    
    60   30   92 1    
    61   31   93 1    
    62   31   94 1    
    63   31   95 1    
    64   32   33 am   BACKBONE|DICT|INTERRES
    65   32   96 1    
    66   33   34 2    
    67   33   35 1    
    68   35   36 1    
    69   35   37 1    
    70   35   97 1    
    71   36   98 1    
    72   36   99 1    
    73   36  100 1    
    74   37   38 am   BACKBONE|DICT|INTERRES
    75   37  101 1    
    76   38   39 2    
    77   38   40 1    
    78   40   41 1    
    79   40   42 1    
    80   40  102 1    
    81   41  103 1    
    82   41  104 1    
    83   41  105 1    
    84   42   43 am   BACKBONE|DICT|INTERRES
    85   42  106 1    
    86   43   44 2    
    87   43   45 1    
    88   45   46 1    
    89   45   49 1    
    90   45  107 1    
    91   46   47 1    
    92   46  108 1    
    93   46  109 1    
    94   47   48 1    
    95   48  110 1    
    96   48  111 1    
    97   49   50 am   BACKBONE|DICT|INTERRES
    98   49  112 1    
    99   50   51 2    
   100   50   52 1    
   101   52   53 1    
   102   52   54 1    
   103   52  113 1    
   104   53  114 1    
   105   53  115 1    
   106   53  116 1    
   107   54   55 am   BACKBONE|DICT|INTERRES
   108   54  117 1    
   109   55   56 2    
   110   55   57 1    
   111   57   58 1    
   112   57   59 1    
   113   57  118 1    
   114   58  119 1    
   115   58  120 1    
   116   58  121 1    
   117   59   60 am   BACKBONE|DICT|INTERRES
   118   59  122 1    
   119   60   61 2    
   120   60   62 1    
   121   62   63 1    
   122   62   64 1    
   123   62  123 1    
   124   63  124 1    
   125   63  125 1    
   126   63  126 1    
   127   64   65 am   BACKBONE|DICT|INTERRES
   128   64  127 1    
   129   65   66 2    
@<TRIPOS>SUBSTRUCTURE
     1 UNK         1 GROUP             0       ****    0 ROOT    
