@<TRIPOS>MOLECULE
3R135
127   129    1
SMALL
USER_CHARGES


@<TRIPOS>ATOM
      1 CA        -85.7338   29.2129  -75.0286 C.3       0 UNK        -0.1998 
      2 C         -84.3094   29.0658  -75.5419 C.2       0 UNK         0.4909 
      3 O         -83.9855   29.5882  -76.6088 O.2       0 UNK        -0.5240 
      4 N         -83.4557   28.3569  -74.7913 N.am      1 UNK        -0.4739 
      5 CA        -82.0412   28.1271  -75.1217 C.3       1 UNK         0.0864 
      6 C6        -81.2320   27.6235  -73.8992 C.3       11 UNK        -0.0881 
      7 S7        -81.3555   28.7120  -72.4461 S.3       11 UNK        -0.2682 
      8 C8        -80.5486   27.6663  -71.1826 C.3       11 UNK         0.0289 
      9 C9        -79.0166   27.6862  -71.1539 C.ar      11 UNK        -0.0687 
     10 C10       -78.3721   26.8438  -70.2416 C.ar      11 UNK        -0.0823 
     11 C11       -76.9819   26.8637  -70.1001 C.ar      11 UNK        -0.0830 
     12 C12       -76.2254   27.7321  -70.8906 C.ar      11 UNK        -0.1021 
     13 C13       -76.8457   28.5608  -71.8276 C.ar      11 UNK        -0.0753 
     14 C14       -78.2385   28.5345  -71.9564 C.ar      11 UNK        -0.0933 
     15 C15       -76.0113   29.5333  -72.6478 C.3       11 UNK         0.0166 
     16 S16       -74.8899   28.6853  -73.8055 S.3       11 UNK        -0.2615 
     17 C17       -73.9943   30.1264  -74.4893 C.3       11 UNK        -0.0865 
     18 CA        -72.5187   30.2624  -74.0276 C.3       10 UNK         0.0862 
     19 C         -72.3763   30.3944  -72.4817 C.2       10 UNK         0.5551 
     20 N         -71.7435   29.4532  -71.7913 N.am      10 UNK        -0.7319 
     21 O         -72.8372   31.3768  -71.9057 O.2       10 UNK        -0.5018 
     22 N         -71.6452   29.2605  -74.6617 N.am      10 UNK        -0.4509 
     23 C         -70.3165   29.3996  -74.7886 C.2       10 UNK         0.4899 
     24 O         -69.6846   30.3749  -74.3812 O.2       10 UNK        -0.4839 
     25 CA        -69.5630   28.2803  -75.5190 C.3       9 UNK         0.0222 
     26 CB        -69.3699   27.0611  -74.6011 C.3       9 UNK        -0.1966 
     27 N         -70.2746   27.8877  -76.7356 N.am      9 UNK        -0.4218 
     28 C         -70.0888   28.4468  -77.9409 C.2       9 UNK         0.5020 
     29 O         -69.2382   29.3082  -78.1701 O.2       9 UNK        -0.5274 
     30 CA        -70.9845   27.9668  -79.1004 C.3       8 UNK         0.0270 
     31 CB        -70.2542   26.9014  -79.9348 C.3       8 UNK        -0.1976 
     32 N         -72.2726   27.4290  -78.6592 N.am      8 UNK        -0.4313 
     33 C         -73.2821   28.1633  -78.1717 C.2       8 UNK         0.5041 
     34 O         -73.2787   29.3940  -78.1392 O.2       8 UNK        -0.5577 
     35 CA        -74.4908   27.3960  -77.5983 C.3       7 UNK         0.0284 
     36 CB        -75.6075   27.2977  -78.6503 C.3       7 UNK        -0.1958 
     37 N         -74.1831   26.0516  -77.0862 N.am      7 UNK        -0.4454 
     38 C         -73.2786   25.7734  -76.1366 C.2       7 UNK         0.5089 
     39 O         -72.5599   26.6252  -75.6137 O.2       7 UNK        -0.5125 
     40 CA        -73.1490   24.2975  -75.7281 C.3       6 UNK         0.0408 
     41 CB        -71.6787   23.8622  -75.5582 C.3       6 UNK        -0.1791 
     42 N         -73.9514   24.0208  -74.5340 N.am      6 UNK        -0.4762 
     43 C         -73.7856   24.4859  -73.2855 C.2       6 UNK         0.5007 
     44 O         -72.7991   25.1162  -72.9021 O.2       6 UNK        -0.5032 
     45 CA        -74.9571   24.2223  -72.3129 C.3       5 UNK         0.0783 
     46 C46       -74.6055   24.6062  -70.8522 C.3       11 UNK        -0.0857 
     47 S47       -75.9768   24.3024  -69.6867 S.3       11 UNK        -0.2512 
     48 C48       -76.3069   25.9802  -69.0598 C.3       11 UNK         0.0225 
     49 N         -76.1680   24.8984  -72.7971 N.am      5 UNK        -0.4615 
     50 C         -76.9654   24.4312  -73.7636 C.2       4 UNK         0.5053 
     51 O         -76.7697   23.3619  -74.3485 O.2       4 UNK        -0.5105 
     52 CA        -78.1195   25.3404  -74.2094 C.3       4 UNK         0.0263 
     53 CB        -77.6333   26.2829  -75.3223 C.3       4 UNK        -0.1981 
     54 N         -79.2522   24.5614  -74.7121 N.am      4 UNK        -0.4224 
     55 C         -80.0534   23.8027  -73.9531 C.2       3 UNK         0.4895 
     56 O         -79.9975   23.7692  -72.7227 O.2       3 UNK        -0.5091 
     57 CA        -81.1146   22.9794  -74.7038 C.3       3 UNK         0.0250 
     58 CB        -82.0258   22.1758  -73.7562 C.3       3 UNK        -0.1996 
     59 N         -81.9414   23.8751  -75.5108 N.am      3 UNK        -0.4254 
     60 C         -81.8777   24.0183  -76.8416 C.2       2 UNK         0.5004 
     61 O         -81.1488   23.3491  -77.5734 O.2       2 UNK        -0.5226 
     62 CA        -82.7492   25.1338  -77.4476 C.3       2 UNK         0.0269 
     63 CB        -84.1543   24.6075  -77.7810 C.3       2 UNK        -0.1926 
     64 N         -82.8580   26.2866  -76.5472 N.am      2 UNK        -0.4687 
     65 C         -81.8509   27.1354  -76.2889 C.2       1 UNK         0.5165 
     66 O         -80.7822   27.1212  -76.8996 O.2       1 UNK        -0.5079 
     67 H67       -86.4373   28.7957  -75.7487 H         1 UNK         0.0900 
     68 H68       -85.9744   30.2663  -74.8877 H         1 UNK         0.0900 
     69 H69       -85.8793   28.7021  -74.0768 H         1 UNK         0.0900 
     70 H70       -83.7644   27.9791  -73.9065 H         1 UNK         0.2959 
     71 H71       -81.6129   29.0793  -75.4433 H         1 UNK         0.1079 
     72 H72       -80.1752   27.5372  -74.1535 H         1 UNK         0.0837 
     73 H73       -81.5606   26.6236  -73.6090 H         1 UNK         0.0837 
     74 H74       -80.9051   27.9998  -70.2071 H         1 UNK         0.0685 
     75 H75       -80.8941   26.6373  -71.2959 H         1 UNK         0.0685 
     76 H76       -78.9593   26.1840  -69.6169 H         1 UNK         0.1434 
     77 H77       -75.1511   27.7781  -70.7739 H         1 UNK         0.1329 
     78 H78       -78.7075   29.2023  -72.6641 H         1 UNK         0.1335 
     79 H79       -75.4276   30.1544  -71.9671 H         1 UNK         0.0680 
     80 H80       -76.6543   30.2113  -73.2112 H         1 UNK         0.0680 
     81 H81       -74.5376   31.0406  -74.2439 H         1 UNK         0.1032 
     82 H82       -74.0313   30.0638  -75.5774 H         1 UNK         0.1032 
     83 H83       -72.1841   31.2267  -74.4158 H         1 UNK         0.0461 
     84 H84       -71.6480   29.5485  -70.7931 H         1 UNK         0.3453 
     85 H85       -71.3826   28.6392  -72.2620 H         1 UNK         0.3453 
     86 H86       -72.0892   28.4006  -74.9731 H         1 UNK         0.2984 
     87 H87       -68.5712   28.6531  -75.7838 H         1 UNK         0.0554 
     88 H88       -68.7696   27.3252  -73.7297 H         1 UNK         0.0847 
     89 H89       -68.8525   26.2527  -75.1177 H         1 UNK         0.0847 
     90 H90       -70.3180   26.6695  -74.2313 H         1 UNK         0.0847 
     91 H91       -71.0544   27.2512  -76.6015 H         1 UNK         0.3141 
     92 H92       -71.1782   28.8288  -79.7426 H         1 UNK         0.0743 
     93 H93       -69.3019   27.2830  -80.3064 H         1 UNK         0.0784 
     94 H94       -70.0397   26.0058  -79.3502 H         1 UNK         0.0784 
     95 H95       -70.8423   26.6046  -80.8035 H         1 UNK         0.0784 
     96 H96       -72.3770   26.4250  -78.6684 H         1 UNK         0.3213 
     97 H97       -74.8689   27.9802  -76.7575 H         1 UNK         0.0855 
     98 H98       -75.8689   28.2850  -79.0341 H         1 UNK         0.0814 
     99 H99       -76.5170   26.8685  -78.2307 H         1 UNK         0.0814 
    100 H100      -75.3076   26.6867  -79.5025 H         1 UNK         0.0814 
    101 H101      -74.7274   25.2915  -77.4685 H         1 UNK         0.3105 
    102 H102      -73.5733   23.6881  -76.5277 H         1 UNK         0.0547 
    103 H103      -71.1237   24.0037  -76.4861 H         1 UNK         0.0837 
    104 H104      -71.1618   24.4335  -74.7878 H         1 UNK         0.0837 
    105 H105      -71.6067   22.8073  -75.2946 H         1 UNK         0.0837 
    106 H106      -74.8369   23.5538  -74.7116 H         1 UNK         0.3020 
    107 H107      -75.1362   23.1443  -72.3227 H         1 UNK         0.1245 
    108 H108      -74.2898   25.6477  -70.7893 H         1 UNK         0.0781 
    109 H109      -73.7508   24.0200  -70.5095 H         1 UNK         0.0781 
    110 H110      -75.3760   26.4333  -68.7151 H         1 UNK         0.0836 
    111 H111      -76.9448   25.9032  -68.1780 H         1 UNK         0.0836 
    112 H112      -76.3713   25.7945  -72.3747 H         1 UNK         0.3022 
    113 H113      -78.4531   25.9309  -73.3548 H         1 UNK         0.0747 
    114 H114      -78.4090   26.9828  -75.6293 H         1 UNK         0.0793 
    115 H115      -76.7820   26.8754  -74.9901 H         1 UNK         0.0793 
    116 H116      -77.3148   25.7283  -76.2054 H         1 UNK         0.0793 
    117 H117      -79.3597   24.5167  -75.7155 H         1 UNK         0.3047 
    118 H118      -80.5822   22.2693  -75.3404 H         1 UNK         0.0822 
    119 H119      -82.7533   21.5858  -74.3139 H         1 UNK         0.0807 
    120 H120      -82.5746   22.8252  -73.0729 H         1 UNK         0.0807 
    121 H121      -81.4431   21.4808  -73.1501 H         1 UNK         0.0807 
    122 H122      -82.5559   24.4915  -74.9996 H         1 UNK         0.2946 
    123 H123      -82.2729   25.4597  -78.3755 H         1 UNK         0.1144 
    124 H124      -84.7602   25.3747  -78.2637 H         1 UNK         0.0793 
    125 H125      -84.6853   24.2711  -76.8897 H         1 UNK         0.0793 
    126 H126      -84.0998   23.7608  -78.4669 H         1 UNK         0.0793 
    127 H127      -83.7158   26.3893  -76.0242 H         1 UNK         0.2896 
@<TRIPOS>BOND
     1    1    2 1    
     2    1   67 1    
     3    1   68 1    
     4    1   69 1    
     5    2    3 2    
     6    2    4 am   BACKBONE|DICT|INTERRES
     7    4    5 1    
     8    4   70 1    
     9    5    6 1    
    10    5   65 1    
    11    5   71 1    
    12    6    7 1    
    13    6   72 1    
    14    6   73 1    
    15    7    8 1    
    16    8    9 1    
    17    8   74 1    
    18    8   75 1    
    19    9   10 ar   
    20    9   14 ar   
    21   10   11 ar   
    22   10   76 1    
    23   11   12 ar   
    24   11   48 1    
    25   12   13 ar   
    26   12   77 1    
    27   13   14 ar   
    28   13   15 1    
    29   14   78 1    
    30   15   16 1    
    31   15   79 1    
    32   15   80 1    
    33   16   17 1    
    34   17   18 1    
    35   17   81 1    
    36   17   82 1    
    37   18   19 1    
    38   18   22 1    
    39   18   83 1    
    40   19   20 am   BACKBONE|DICT|INTERRES
    41   19   21 2    
    42   20   84 1    
    43   20   85 1    
    44   22   23 am   BACKBONE|DICT|INTERRES
    45   22   86 1    
    46   23   24 2    
    47   23   25 1    
    48   25   26 1    
    49   25   27 1    
    50   25   87 1    
    51   26   88 1    
    52   26   89 1    
    53   26   90 1    
    54   27   28 am   BACKBONE|DICT|INTERRES
    55   27   91 1    
    56   28   29 2    
    57   28   30 1    
    58   30   31 1    
    59   30   32 1    
    60   30   92 1    
    61   31   93 1    
    62   31   94 1    
    63   31   95 1    
    64   32   33 am   BACKBONE|DICT|INTERRES
    65   32   96 1    
    66   33   34 2    
    67   33   35 1    
    68   35   36 1    
    69   35   37 1    
    70   35   97 1    
    71   36   98 1    
    72   36   99 1    
    73   36  100 1    
    74   37   38 am   BACKBONE|DICT|INTERRES
    75   37  101 1    
    76   38   39 2    
    77   38   40 1    
    78   40   41 1    
    79   40   42 1    
    80   40  102 1    
    81   41  103 1    
    82   41  104 1    
    83   41  105 1    
    84   42   43 am   BACKBONE|DICT|INTERRES
    85   42  106 1    
    86   43   44 2    
    87   43   45 1    
    88   45   46 1    
    89   45   49 1    
    90   45  107 1    
    91   46   47 1    
    92   46  108 1    
    93   46  109 1    
    94   47   48 1    
    95   48  110 1    
    96   48  111 1    
    97   49   50 am   BACKBONE|DICT|INTERRES
    98   49  112 1    
    99   50   51 2    
   100   50   52 1    
   101   52   53 1    
   102   52   54 1    
   103   52  113 1    
   104   53  114 1    
   105   53  115 1    
   106   53  116 1    
   107   54   55 am   BACKBONE|DICT|INTERRES
   108   54  117 1    
   109   55   56 2    
   110   55   57 1    
   111   57   58 1    
   112   57   59 1    
   113   57  118 1    
   114   58  119 1    
   115   58  120 1    
   116   58  121 1    
   117   59   60 am   BACKBONE|DICT|INTERRES
   118   59  122 1    
   119   60   61 2    
   120   60   62 1    
   121   62   63 1    
   122   62   64 1    
   123   62  123 1    
   124   63  124 1    
   125   63  125 1    
   126   63  126 1    
   127   64   65 am   BACKBONE|DICT|INTERRES
   128   64  127 1    
   129   65   66 2    
@<TRIPOS>SUBSTRUCTURE
     1 UNK         1 GROUP             0       ****    0 ROOT    
