@<TRIPOS>MOLECULE
3R135
127   129    1
SMALL
USER_CHARGES


@<TRIPOS>ATOM
      1 CA        -83.4583   27.4048  -70.2604 C.3       0 UNK        -0.1998 
      2 C         -83.7896   27.3375  -71.7436 C.2       0 UNK         0.4909 
      3 O         -84.8199   26.7770  -72.1179 O.2       0 UNK        -0.5240 
      4 N         -82.9215   27.9048  -72.5913 N.am      1 UNK        -0.4739 
      5 CA        -83.0552   27.9096  -74.0547 C.3       1 UNK         0.0864 
      6 C6        -82.2105   29.0398  -74.7020 C.3       11 UNK        -0.0881 
      7 S7        -80.4063   28.8493  -74.4780 S.3       11 UNK        -0.2682 
      8 C8        -80.0943   29.9292  -73.0499 C.3       11 UNK         0.0289 
      9 C9        -78.7832   29.5602  -72.3761 C.ar      11 UNK        -0.0687 
     10 C10       -78.6907   28.3826  -71.6273 C.ar      11 UNK        -0.0823 
     11 C11       -77.4924   28.0318  -70.9994 C.ar      11 UNK        -0.0830 
     12 C12       -76.3812   28.8718  -71.1223 C.ar      11 UNK        -0.1021 
     13 C13       -76.4631   30.0533  -71.8659 C.ar      11 UNK        -0.0753 
     14 C14       -77.6668   30.3929  -72.4907 C.ar      11 UNK        -0.0933 
     15 C15       -75.2574   30.9712  -71.9831 C.3       11 UNK         0.0166 
     16 S16       -74.5071   30.8640  -73.6346 S.3       11 UNK        -0.2615 
     17 C17       -73.0024   31.8770  -73.3945 C.3       11 UNK        -0.0865 
     18 CA        -71.6892   31.0451  -73.3460 C.3       10 UNK         0.0862 
     19 C         -71.5464   30.1980  -72.0537 C.2       10 UNK         0.5551 
     20 N         -71.4196   30.8436  -70.9023 N.am      10 UNK        -0.7319 
     21 O         -71.5525   28.9684  -72.0796 O.2       10 UNK        -0.5018 
     22 N         -71.5260   30.2178  -74.5435 N.am      10 UNK        -0.4509 
     23 C         -71.1023   30.6356  -75.7389 C.2       10 UNK         0.4899 
     24 O         -70.7351   31.7901  -75.9629 O.2       10 UNK        -0.4839 
     25 CA        -71.1317   29.6159  -76.8946 C.3       9 UNK         0.0222 
     26 CB        -69.8926   29.7216  -77.8093 C.3       9 UNK        -0.1966 
     27 N         -71.3802   28.2294  -76.4746 N.am      9 UNK        -0.4218 
     28 C         -70.5606   27.4103  -75.7930 C.2       9 UNK         0.5020 
     29 O         -69.4376   27.7342  -75.4050 O.2       9 UNK        -0.5274 
     30 CA        -71.0733   25.9918  -75.4657 C.3       8 UNK         0.0270 
     31 CB        -71.3179   25.8433  -73.9550 C.3       8 UNK        -0.1976 
     32 N         -72.2941   25.6286  -76.1933 N.am      8 UNK        -0.4313 
     33 C         -72.3316   25.3449  -77.5050 C.2       8 UNK         0.5041 
     34 O         -71.3208   25.2483  -78.2024 O.2       8 UNK        -0.5577 
     35 CA        -73.7086   25.1666  -78.1759 C.3       7 UNK         0.0284 
     36 CB        -73.9698   23.6786  -78.4623 C.3       7 UNK        -0.1958 
     37 N         -74.8447   25.7214  -77.4316 N.am      7 UNK        -0.4454 
     38 C         -74.9975   26.9987  -77.0512 C.2       7 UNK         0.5089 
     39 O         -74.1926   27.8917  -77.3186 O.2       7 UNK        -0.5125 
     40 CA        -76.2160   27.3172  -76.1626 C.3       6 UNK         0.0408 
     41 CB        -77.4324   27.6742  -77.0282 C.3       6 UNK        -0.1791 
     42 N         -76.5718   26.2322  -75.2387 N.am      6 UNK        -0.4762 
     43 C         -75.7473   25.7073  -74.3169 C.2       6 UNK         0.5007 
     44 O         -74.5823   26.0715  -74.1575 O.2       6 UNK        -0.5032 
     45 CA        -76.2880   24.5233  -73.4959 C.3       5 UNK         0.0783 
     46 C46       -77.2343   24.9721  -72.3552 C.3       11 UNK        -0.0857 
     47 S47       -76.2971   25.5178  -70.8890 S.3       11 UNK        -0.2512 
     48 C48       -77.4084   26.7627  -70.1623 C.3       11 UNK         0.0225 
     49 N         -76.9203   23.5508  -74.3879 N.am      5 UNK        -0.4615 
     50 C         -76.2464   22.6190  -75.0775 C.2       4 UNK         0.5053 
     51 O         -75.0375   22.4225  -74.9566 O.2       4 UNK        -0.5105 
     52 CA        -77.0412   21.7603  -76.0788 C.3       4 UNK         0.0263 
     53 CB        -77.4588   20.4308  -75.4303 C.3       4 UNK        -0.1981 
     54 N         -78.2291   22.4294  -76.6137 N.am      4 UNK        -0.4224 
     55 C         -78.2064   23.5159  -77.3987 C.2       3 UNK         0.4895 
     56 O         -77.1745   24.0526  -77.7970 O.2       3 UNK        -0.5091 
     57 CA        -79.5654   24.1439  -77.7499 C.3       3 UNK         0.0250 
     58 CB        -80.1401   23.5069  -79.0248 C.3       3 UNK        -0.1996 
     59 N         -80.5526   24.0585  -76.6673 N.am      3 UNK        -0.4254 
     60 C         -80.3897   24.5727  -75.4403 C.2       2 UNK         0.5004 
     61 O         -79.3629   25.1448  -75.0633 O.2       2 UNK        -0.5226 
     62 CA        -81.5473   24.3772  -74.4517 C.3       2 UNK         0.0269 
     63 CB        -81.0986   23.5260  -73.2520 C.3       2 UNK        -0.1926 
     64 N         -82.0234   25.6711  -73.9718 N.am      2 UNK        -0.4687 
     65 C         -82.7598   26.5312  -74.6907 C.2       1 UNK         0.5165 
     66 O         -83.2018   26.2745  -75.8121 O.2       1 UNK        -0.5079 
     67 H67       -83.3663   26.3991  -69.8509 H         1 UNK         0.0900 
     68 H68       -82.5240   27.9340  -70.0735 H         1 UNK         0.0900 
     69 H69       -84.2530   27.9205  -69.7220 H         1 UNK         0.0900 
     70 H70       -82.0925   28.3520  -72.2308 H         1 UNK         0.2959 
     71 H71       -84.1021   28.1233  -74.2830 H         1 UNK         0.1079 
     72 H72       -82.5234   30.0093  -74.3109 H         1 UNK         0.0837 
     73 H73       -82.4108   29.0850  -75.7743 H         1 UNK         0.0837 
     74 H74       -80.0856   30.9682  -73.3832 H         1 UNK         0.0685 
     75 H75       -80.9033   29.8459  -72.3241 H         1 UNK         0.0685 
     76 H76       -79.5539   27.7379  -71.5385 H         1 UNK         0.1434 
     77 H77       -75.4525   28.6027  -70.6373 H         1 UNK         0.1329 
     78 H78       -77.7295   31.3047  -73.0690 H         1 UNK         0.1335 
     79 H79       -74.5113   30.7168  -71.2286 H         1 UNK         0.0680 
     80 H80       -75.5597   32.0011  -71.7876 H         1 UNK         0.0680 
     81 H81       -72.9478   32.5839  -74.2236 H         1 UNK         0.1032 
     82 H82       -73.1040   32.4964  -72.5019 H         1 UNK         0.1032 
     83 H83       -70.8502   31.7434  -73.3241 H         1 UNK         0.0461 
     84 H84       -71.3959   31.8505  -70.8641 H         1 UNK         0.3453 
     85 H85       -71.3251   30.3095  -70.0528 H         1 UNK         0.3453 
     86 H86       -71.7745   29.2465  -74.4163 H         1 UNK         0.2984 
     87 H87       -71.9990   29.8880  -77.4978 H         1 UNK         0.0554 
     88 H88       -69.8228   30.7126  -78.2593 H         1 UNK         0.0847 
     89 H89       -69.9381   29.0001  -78.6250 H         1 UNK         0.0847 
     90 H90       -68.9656   29.5524  -77.2610 H         1 UNK         0.0847 
     91 H91       -72.3029   27.8809  -76.7224 H         1 UNK         0.3141 
     92 H92       -70.2868   25.2896  -75.7499 H         1 UNK         0.0743 
     93 H93       -70.3970   26.0053  -73.3932 H         1 UNK         0.0784 
     94 H94       -72.0467   26.5683  -73.5907 H         1 UNK         0.0784 
     95 H95       -71.6805   24.8464  -73.7039 H         1 UNK         0.0784 
     96 H96       -73.1655   25.6944  -75.6759 H         1 UNK         0.3213 
     97 H97       -73.6635   25.6945  -79.1305 H         1 UNK         0.0855 
     98 H98       -74.0964   23.1082  -77.5415 H         1 UNK         0.0814 
     99 H99       -73.1403   23.2316  -79.0122 H         1 UNK         0.0814 
    100 H100      -74.8649   23.5417  -79.0691 H         1 UNK         0.0814 
    101 H101      -75.6093   25.0794  -77.2395 H         1 UNK         0.3105 
    102 H102      -75.9632   28.1875  -75.5531 H         1 UNK         0.0547 
    103 H103      -78.3000   27.9174  -76.4156 H         1 UNK         0.0837 
    104 H104      -77.2224   28.5426  -77.6538 H         1 UNK         0.0837 
    105 H105      -77.7080   26.8546  -77.6913 H         1 UNK         0.0837 
    106 H106      -77.5227   25.8767  -75.2929 H         1 UNK         0.3020 
    107 H107      -75.4240   24.0345  -73.0378 H         1 UNK         0.1245 
    108 H108      -77.8574   24.1360  -72.0346 H         1 UNK         0.0781 
    109 H109      -77.9245   25.7492  -72.6892 H         1 UNK         0.0781 
    110 H110      -77.0418   27.0202  -69.1676 H         1 UNK         0.0836 
    111 H111      -78.3952   26.3203  -70.0165 H         1 UNK         0.0836 
    112 H112      -77.8998   23.7063  -74.5911 H         1 UNK         0.3022 
    113 H113      -76.3771   21.5398  -76.9174 H         1 UNK         0.0747 
    114 H114      -77.9493   19.7745  -76.1494 H         1 UNK         0.0793 
    115 H115      -76.5897   19.8945  -75.0462 H         1 UNK         0.0793 
    116 H116      -78.1417   20.5854  -74.5939 H         1 UNK         0.0793 
    117 H117      -79.1263   22.0573  -76.3386 H         1 UNK         0.3047 
    118 H118      -79.3941   25.2034  -77.9478 H         1 UNK         0.0822 
    119 H119      -79.4296   23.5775  -79.8499 H         1 UNK         0.0807 
    120 H120      -81.0531   24.0103  -79.3436 H         1 UNK         0.0807 
    121 H121      -80.3701   22.4502  -78.8826 H         1 UNK         0.0807 
    122 H122      -81.4293   23.6110  -76.8945 H         1 UNK         0.2946 
    123 H123      -82.3719   23.8633  -74.9510 H         1 UNK         0.1144 
    124 H124      -81.9249   23.3462  -72.5639 H         1 UNK         0.0793 
    125 H125      -80.2960   24.0064  -72.6912 H         1 UNK         0.0793 
    126 H126      -80.7316   22.5518  -73.5780 H         1 UNK         0.0793 
    127 H127      -81.6739   25.9822  -73.0783 H         1 UNK         0.2896 
@<TRIPOS>BOND
     1    1    2 1    
     2    1   67 1    
     3    1   68 1    
     4    1   69 1    
     5    2    3 2    
     6    2    4 am   BACKBONE|DICT|INTERRES
     7    4    5 1    
     8    4   70 1    
     9    5    6 1    
    10    5   65 1    
    11    5   71 1    
    12    6    7 1    
    13    6   72 1    
    14    6   73 1    
    15    7    8 1    
    16    8    9 1    
    17    8   74 1    
    18    8   75 1    
    19    9   10 ar   
    20    9   14 ar   
    21   10   11 ar   
    22   10   76 1    
    23   11   12 ar   
    24   11   48 1    
    25   12   13 ar   
    26   12   77 1    
    27   13   14 ar   
    28   13   15 1    
    29   14   78 1    
    30   15   16 1    
    31   15   79 1    
    32   15   80 1    
    33   16   17 1    
    34   17   18 1    
    35   17   81 1    
    36   17   82 1    
    37   18   19 1    
    38   18   22 1    
    39   18   83 1    
    40   19   20 am   BACKBONE|DICT|INTERRES
    41   19   21 2    
    42   20   84 1    
    43   20   85 1    
    44   22   23 am   BACKBONE|DICT|INTERRES
    45   22   86 1    
    46   23   24 2    
    47   23   25 1    
    48   25   26 1    
    49   25   27 1    
    50   25   87 1    
    51   26   88 1    
    52   26   89 1    
    53   26   90 1    
    54   27   28 am   BACKBONE|DICT|INTERRES
    55   27   91 1    
    56   28   29 2    
    57   28   30 1    
    58   30   31 1    
    59   30   32 1    
    60   30   92 1    
    61   31   93 1    
    62   31   94 1    
    63   31   95 1    
    64   32   33 am   BACKBONE|DICT|INTERRES
    65   32   96 1    
    66   33   34 2    
    67   33   35 1    
    68   35   36 1    
    69   35   37 1    
    70   35   97 1    
    71   36   98 1    
    72   36   99 1    
    73   36  100 1    
    74   37   38 am   BACKBONE|DICT|INTERRES
    75   37  101 1    
    76   38   39 2    
    77   38   40 1    
    78   40   41 1    
    79   40   42 1    
    80   40  102 1    
    81   41  103 1    
    82   41  104 1    
    83   41  105 1    
    84   42   43 am   BACKBONE|DICT|INTERRES
    85   42  106 1    
    86   43   44 2    
    87   43   45 1    
    88   45   46 1    
    89   45   49 1    
    90   45  107 1    
    91   46   47 1    
    92   46  108 1    
    93   46  109 1    
    94   47   48 1    
    95   48  110 1    
    96   48  111 1    
    97   49   50 am   BACKBONE|DICT|INTERRES
    98   49  112 1    
    99   50   51 2    
   100   50   52 1    
   101   52   53 1    
   102   52   54 1    
   103   52  113 1    
   104   53  114 1    
   105   53  115 1    
   106   53  116 1    
   107   54   55 am   BACKBONE|DICT|INTERRES
   108   54  117 1    
   109   55   56 2    
   110   55   57 1    
   111   57   58 1    
   112   57   59 1    
   113   57  118 1    
   114   58  119 1    
   115   58  120 1    
   116   58  121 1    
   117   59   60 am   BACKBONE|DICT|INTERRES
   118   59  122 1    
   119   60   61 2    
   120   60   62 1    
   121   62   63 1    
   122   62   64 1    
   123   62  123 1    
   124   63  124 1    
   125   63  125 1    
   126   63  126 1    
   127   64   65 am   BACKBONE|DICT|INTERRES
   128   64  127 1    
   129   65   66 2    
@<TRIPOS>SUBSTRUCTURE
     1 UNK         1 GROUP             0       ****    0 ROOT    
