@<TRIPOS>MOLECULE
3R135
127   129    1
SMALL
USER_CHARGES


@<TRIPOS>ATOM
      1 CA        -77.5795   29.5627  -77.3582 C.3       0 UNK        -0.1998 
      2 C         -77.8593   28.5479  -76.2639 C.2       0 UNK         0.4909 
      3 O         -76.9993   27.7252  -75.9464 O.2       0 UNK        -0.5240 
      4 N         -79.0715   28.5905  -75.6975 N.am      1 UNK        -0.4739 
      5 CA        -79.5444   27.6334  -74.6943 C.3       1 UNK         0.0864 
      6 C6        -80.8131   28.1560  -73.9719 C.3       11 UNK        -0.0881 
      7 S7        -81.1972   27.2868  -72.4133 S.3       11 UNK        -0.2682 
      8 C8        -80.2595   28.2715  -71.1938 C.3       11 UNK         0.0289 
      9 C9        -78.7636   28.0587  -71.3639 C.ar      11 UNK        -0.0687 
     10 C10       -78.2074   26.8166  -71.0497 C.ar      11 UNK        -0.0823 
     11 C11       -76.8639   26.5472  -71.3159 C.ar      11 UNK        -0.0830 
     12 C12       -76.0688   27.5555  -71.8726 C.ar      11 UNK        -0.1021 
     13 C13       -76.6058   28.8074  -72.1870 C.ar      11 UNK        -0.0753 
     14 C14       -77.9538   29.0605  -71.9106 C.ar      11 UNK        -0.0933 
     15 C15       -75.7585   29.8499  -72.9088 C.3       11 UNK         0.0166 
     16 S16       -74.4885   30.6029  -71.8415 S.3       11 UNK        -0.2615 
     17 C17       -73.1474   29.3606  -71.8757 C.3       11 UNK        -0.0865 
     18 CA        -71.7623   29.9912  -72.1635 C.3       10 UNK         0.0862 
     19 C         -70.6191   29.0024  -71.8037 C.2       10 UNK         0.5551 
     20 N         -70.2038   28.9734  -70.5448 N.am      10 UNK        -0.7319 
     21 O         -70.1332   28.2403  -72.6377 O.2       10 UNK        -0.5018 
     22 N         -71.6638   30.4574  -73.5537 N.am      10 UNK        -0.4509 
     23 C         -70.7482   31.3326  -73.9929 C.2       10 UNK         0.4899 
     24 O         -69.9540   31.9136  -73.2516 O.2       10 UNK        -0.4839 
     25 CA        -70.6819   31.6169  -75.5079 C.3       9 UNK         0.0222 
     26 CB        -69.4219   30.9782  -76.1161 C.3       9 UNK        -0.1966 
     27 N         -71.8531   31.1508  -76.2524 N.am      9 UNK        -0.4218 
     28 C         -73.0816   31.6781  -76.1718 C.2       9 UNK         0.5020 
     29 O         -73.3439   32.6989  -75.5345 O.2       9 UNK        -0.5274 
     30 CA        -74.2185   30.9502  -76.9172 C.3       8 UNK         0.0270 
     31 CB        -74.6593   31.7722  -78.1411 C.3       8 UNK        -0.1976 
     32 N         -73.9314   29.5725  -77.3477 N.am      8 UNK        -0.4313 
     33 C         -73.5994   28.5485  -76.5494 C.2       8 UNK         0.5041 
     34 O         -73.4090   28.6583  -75.3377 O.2       8 UNK        -0.5577 
     35 CA        -73.4670   27.1790  -77.2241 C.3       7 UNK         0.0284 
     36 CB        -72.4576   26.2648  -76.5013 C.3       7 UNK        -0.1958 
     37 N         -74.7840   26.5492  -77.2505 N.am      7 UNK        -0.4454 
     38 C         -75.1945   25.6428  -78.1461 C.2       7 UNK         0.5089 
     39 O         -74.5094   25.2675  -79.0995 O.2       7 UNK        -0.5125 
     40 CA        -76.5965   25.0384  -77.9067 C.3       6 UNK         0.0408 
     41 CB        -76.9538   23.9278  -78.9210 C.3       6 UNK        -0.1791 
     42 N         -76.7457   24.5750  -76.5179 N.am      6 UNK        -0.4762 
     43 C         -76.0272   23.6104  -75.9195 C.2       6 UNK         0.5007 
     44 O         -75.2831   22.8297  -76.5136 O.2       6 UNK        -0.5032 
     45 CA        -76.1094   23.5392  -74.3883 C.3       5 UNK         0.0783 
     46 C46       -75.5536   24.8419  -73.7616 C.3       11 UNK        -0.0857 
     47 S47       -74.9291   24.5981  -72.0644 S.3       11 UNK        -0.2512 
     48 C48       -76.3222   25.1486  -71.0186 C.3       11 UNK         0.0225 
     49 N         -77.4853   23.2660  -73.9593 N.am      5 UNK        -0.4615 
     50 C         -77.8677   22.1506  -73.3265 C.2       4 UNK         0.5053 
     51 O         -77.1126   21.2026  -73.1073 O.2       4 UNK        -0.5105 
     52 CA        -79.3164   22.0562  -72.8215 C.3       4 UNK         0.0263 
     53 CB        -79.4453   22.6415  -71.4039 C.3       4 UNK        -0.1981 
     54 N         -80.3103   22.6847  -73.6982 N.am      4 UNK        -0.4224 
     55 C         -81.5436   22.1873  -73.8912 C.2       3 UNK         0.4895 
     56 O         -81.9267   21.1169  -73.4159 O.2       3 UNK        -0.5091 
     57 CA        -82.5502   23.0096  -74.7209 C.3       3 UNK         0.0250 
     58 CB        -83.5662   23.6974  -73.7933 C.3       3 UNK        -0.1996 
     59 N         -81.9352   24.0243  -75.5730 N.am      3 UNK        -0.4254 
     60 C         -81.1985   23.7744  -76.6621 C.2       2 UNK         0.5004 
     61 O         -81.0290   22.6487  -77.1305 O.2       2 UNK        -0.5226 
     62 CA        -80.5095   24.9790  -77.3294 C.3       2 UNK         0.0269 
     63 CB        -81.2311   25.3656  -78.6301 C.3       2 UNK        -0.1926 
     64 N         -80.3635   26.1754  -76.4879 N.am      2 UNK        -0.4687 
     65 C         -79.7260   26.2345  -75.3085 C.2       1 UNK         0.5165 
     66 O         -79.2425   25.2509  -74.7451 O.2       1 UNK        -0.5079 
     67 H67       -78.4619   29.7280  -77.9758 H         1 UNK         0.0900 
     68 H68       -77.2835   30.5150  -76.9213 H         1 UNK         0.0900 
     69 H69       -76.7786   29.2114  -78.0074 H         1 UNK         0.0900 
     70 H70       -79.7320   29.2961  -75.9915 H         1 UNK         0.2959 
     71 H71       -78.7428   27.5269  -73.9645 H         1 UNK         0.1079 
     72 H72       -81.6852   28.0966  -74.6258 H         1 UNK         0.0837 
     73 H73       -80.6961   29.2159  -73.7397 H         1 UNK         0.0837 
     74 H74       -80.5549   27.9671  -70.1887 H         1 UNK         0.0685 
     75 H75       -80.5228   29.3262  -71.2869 H         1 UNK         0.0685 
     76 H76       -78.8411   26.0424  -70.6391 H         1 UNK         0.1434 
     77 H77       -75.0368   27.3473  -72.1024 H         1 UNK         0.1329 
     78 H78       -78.3870   30.0149  -72.1763 H         1 UNK         0.1335 
     79 H79       -76.3949   30.6491  -73.2915 H         1 UNK         0.0680 
     80 H80       -75.2959   29.3991  -73.7859 H         1 UNK         0.0680 
     81 H81       -73.1559   28.8518  -70.9096 H         1 UNK         0.1032 
     82 H82       -73.3521   28.5971  -72.6266 H         1 UNK         0.1032 
     83 H83       -71.6510   30.8627  -71.5145 H         1 UNK         0.0461 
     84 H84       -70.5985   29.5890  -69.8506 H         1 UNK         0.3453 
     85 H85       -69.4723   28.3301  -70.2850 H         1 UNK         0.3453 
     86 H86       -72.2586   29.9806  -74.2238 H         1 UNK         0.2984 
     87 H87       -70.6106   32.6993  -75.6333 H         1 UNK         0.0554 
     88 H88       -68.5215   31.3370  -75.6152 H         1 UNK         0.0847 
     89 H89       -69.3201   31.2240  -77.1733 H         1 UNK         0.0847 
     90 H90       -69.4343   29.8915  -76.0209 H         1 UNK         0.0847 
     91 H91       -71.7408   30.3072  -76.7946 H         1 UNK         0.3141 
     92 H92       -75.0534   30.8966  -76.2164 H         1 UNK         0.0743 
     93 H93       -73.8595   31.8548  -78.8782 H         1 UNK         0.0784 
     94 H94       -75.5249   31.3317  -78.6348 H         1 UNK         0.0784 
     95 H95       -74.9391   32.7863  -77.8514 H         1 UNK         0.0784 
     96 H96       -74.0524   29.3842  -78.3329 H         1 UNK         0.3213 
     97 H97       -73.1160   27.3361  -78.2465 H         1 UNK         0.0855 
     98 H98       -72.7623   26.0548  -75.4758 H         1 UNK         0.0814 
     99 H99       -71.4727   26.7313  -76.4575 H         1 UNK         0.0814 
    100 H100      -72.3433   25.3116  -77.0174 H         1 UNK         0.0814 
    101 H101      -75.4526   26.8826  -76.5555 H         1 UNK         0.3105 
    102 H102      -77.3134   25.8498  -78.0398 H         1 UNK         0.0547 
    103 H103      -77.9090   23.4569  -78.6947 H         1 UNK         0.0837 
    104 H104      -76.1998   23.1407  -78.9475 H         1 UNK         0.0837 
    105 H105      -77.0230   24.3362  -79.9298 H         1 UNK         0.0837 
    106 H106      -77.3195   25.1652  -75.9283 H         1 UNK         0.3020 
    107 H107      -75.4484   22.7202  -74.0943 H         1 UNK         0.1245 
    108 H108      -76.3010   25.6354  -73.7983 H         1 UNK         0.0781 
    109 H109      -74.7032   25.2197  -74.3324 H         1 UNK         0.0781 
    110 H110      -76.0060   25.1146  -69.9754 H         1 UNK         0.0836 
    111 H111      -77.1188   24.4127  -71.1213 H         1 UNK         0.0836 
    112 H112      -78.1622   24.0036  -74.1418 H         1 UNK         0.3022 
    113 H113      -79.5236   20.9857  -72.7558 H         1 UNK         0.0747 
    114 H114      -80.4019   22.3746  -70.9546 H         1 UNK         0.0793 
    115 H115      -78.6625   22.2634  -70.7446 H         1 UNK         0.0793 
    116 H116      -79.3771   23.7293  -71.4135 H         1 UNK         0.0793 
    117 H117      -80.0590   23.5685  -74.1294 H         1 UNK         0.3047 
    118 H118      -83.0896   22.3099  -75.3631 H         1 UNK         0.0822 
    119 H119      -84.3353   24.2196  -74.3628 H         1 UNK         0.0807 
    120 H120      -83.0848   24.4215  -73.1341 H         1 UNK         0.0807 
    121 H121      -84.0743   22.9685  -73.1602 H         1 UNK         0.0807 
    122 H122      -82.0173   24.9834  -75.2689 H         1 UNK         0.2946 
    123 H123      -79.5042   24.6469  -77.5842 H         1 UNK         0.1144 
    124 H124      -80.6810   26.1312  -79.1776 H         1 UNK         0.0793 
    125 H125      -82.2353   25.7445  -78.4362 H         1 UNK         0.0793 
    126 H126      -81.3297   24.5056  -79.2944 H         1 UNK         0.0793 
    127 H127      -80.7110   27.0391  -76.8791 H         1 UNK         0.2896 
@<TRIPOS>BOND
     1    1    2 1    
     2    1   67 1    
     3    1   68 1    
     4    1   69 1    
     5    2    3 2    
     6    2    4 am   BACKBONE|DICT|INTERRES
     7    4    5 1    
     8    4   70 1    
     9    5    6 1    
    10    5   65 1    
    11    5   71 1    
    12    6    7 1    
    13    6   72 1    
    14    6   73 1    
    15    7    8 1    
    16    8    9 1    
    17    8   74 1    
    18    8   75 1    
    19    9   10 ar   
    20    9   14 ar   
    21   10   11 ar   
    22   10   76 1    
    23   11   12 ar   
    24   11   48 1    
    25   12   13 ar   
    26   12   77 1    
    27   13   14 ar   
    28   13   15 1    
    29   14   78 1    
    30   15   16 1    
    31   15   79 1    
    32   15   80 1    
    33   16   17 1    
    34   17   18 1    
    35   17   81 1    
    36   17   82 1    
    37   18   19 1    
    38   18   22 1    
    39   18   83 1    
    40   19   20 am   BACKBONE|DICT|INTERRES
    41   19   21 2    
    42   20   84 1    
    43   20   85 1    
    44   22   23 am   BACKBONE|DICT|INTERRES
    45   22   86 1    
    46   23   24 2    
    47   23   25 1    
    48   25   26 1    
    49   25   27 1    
    50   25   87 1    
    51   26   88 1    
    52   26   89 1    
    53   26   90 1    
    54   27   28 am   BACKBONE|DICT|INTERRES
    55   27   91 1    
    56   28   29 2    
    57   28   30 1    
    58   30   31 1    
    59   30   32 1    
    60   30   92 1    
    61   31   93 1    
    62   31   94 1    
    63   31   95 1    
    64   32   33 am   BACKBONE|DICT|INTERRES
    65   32   96 1    
    66   33   34 2    
    67   33   35 1    
    68   35   36 1    
    69   35   37 1    
    70   35   97 1    
    71   36   98 1    
    72   36   99 1    
    73   36  100 1    
    74   37   38 am   BACKBONE|DICT|INTERRES
    75   37  101 1    
    76   38   39 2    
    77   38   40 1    
    78   40   41 1    
    79   40   42 1    
    80   40  102 1    
    81   41  103 1    
    82   41  104 1    
    83   41  105 1    
    84   42   43 am   BACKBONE|DICT|INTERRES
    85   42  106 1    
    86   43   44 2    
    87   43   45 1    
    88   45   46 1    
    89   45   49 1    
    90   45  107 1    
    91   46   47 1    
    92   46  108 1    
    93   46  109 1    
    94   47   48 1    
    95   48  110 1    
    96   48  111 1    
    97   49   50 am   BACKBONE|DICT|INTERRES
    98   49  112 1    
    99   50   51 2    
   100   50   52 1    
   101   52   53 1    
   102   52   54 1    
   103   52  113 1    
   104   53  114 1    
   105   53  115 1    
   106   53  116 1    
   107   54   55 am   BACKBONE|DICT|INTERRES
   108   54  117 1    
   109   55   56 2    
   110   55   57 1    
   111   57   58 1    
   112   57   59 1    
   113   57  118 1    
   114   58  119 1    
   115   58  120 1    
   116   58  121 1    
   117   59   60 am   BACKBONE|DICT|INTERRES
   118   59  122 1    
   119   60   61 2    
   120   60   62 1    
   121   62   63 1    
   122   62   64 1    
   123   62  123 1    
   124   63  124 1    
   125   63  125 1    
   126   63  126 1    
   127   64   65 am   BACKBONE|DICT|INTERRES
   128   64  127 1    
   129   65   66 2    
@<TRIPOS>SUBSTRUCTURE
     1 UNK         1 GROUP             0       ****    0 ROOT    
