@<TRIPOS>MOLECULE
3R135
127   129    1
SMALL
USER_CHARGES


@<TRIPOS>ATOM
      1 CA        -83.0657   28.0113  -71.0687 C.3       0 UNK        -0.1998 
      2 C         -82.1944   27.7109  -72.2794 C.2       0 UNK         0.4909 
      3 O         -81.2786   26.8971  -72.1761 O.2       0 UNK        -0.5240 
      4 N         -82.4763   28.3710  -73.4118 N.am      1 UNK        -0.4739 
      5 CA        -81.7921   28.2521  -74.7113 C.3       1 UNK         0.0864 
      6 C6        -80.2831   28.6513  -74.6714 C.3       11 UNK        -0.0881 
      7 S7        -79.9860   30.2823  -73.8953 S.3       11 UNK        -0.2682 
      8 C8        -78.1580   30.3479  -73.7858 C.3       11 UNK         0.0289 
      9 C9        -77.4991   29.5088  -72.6847 C.ar      11 UNK        -0.0687 
     10 C10       -78.2074   28.6028  -71.8880 C.ar      11 UNK        -0.0823 
     11 C11       -77.5448   27.7694  -70.9832 C.ar      11 UNK        -0.0830 
     12 C12       -76.1685   27.9071  -70.7978 C.ar      11 UNK        -0.1021 
     13 C13       -75.4491   28.8397  -71.5477 C.ar      11 UNK        -0.0753 
     14 C14       -76.1175   29.6229  -72.4968 C.ar      11 UNK        -0.0933 
     15 C15       -73.9431   28.9580  -71.3768 C.3       11 UNK         0.0166 
     16 S16       -73.4588   30.6243  -70.8250 S.3       11 UNK        -0.2615 
     17 C17       -71.6753   30.6170  -71.2104 C.3       11 UNK        -0.0865 
     18 CA        -71.3581   31.2331  -72.6019 C.3       10 UNK         0.0862 
     19 C         -69.8312   31.4735  -72.7809 C.2       10 UNK         0.5551 
     20 N         -69.1859   30.9532  -73.8195 N.am      10 UNK        -0.7319 
     21 O         -69.2196   32.1630  -71.9684 O.2       10 UNK        -0.5018 
     22 N         -71.9325   30.4271  -73.6888 N.am      10 UNK        -0.4509 
     23 C         -72.9515   30.7576  -74.4851 C.2       10 UNK         0.4899 
     24 O         -73.5661   31.8215  -74.4065 O.2       10 UNK        -0.4839 
     25 CA        -73.3816   29.7321  -75.5545 C.3       9 UNK         0.0222 
     26 CB        -72.7541   30.0915  -76.9155 C.3       9 UNK        -0.1966 
     27 N         -73.1546   28.3108  -75.2338 N.am      9 UNK        -0.4218 
     28 C         -71.9935   27.6604  -75.0522 C.2       9 UNK         0.5020 
     29 O         -70.8927   28.2121  -75.0030 O.2       9 UNK        -0.5274 
     30 CA        -72.0709   26.1329  -74.8998 C.3       8 UNK         0.0270 
     31 CB        -72.4806   25.7461  -73.4688 C.3       8 UNK        -0.1976 
     32 N         -72.9862   25.5236  -75.8676 N.am      8 UNK        -0.4313 
     33 C         -72.7907   25.5019  -77.1952 C.2       8 UNK         0.5041 
     34 O         -71.7614   25.8976  -77.7443 O.2       8 UNK        -0.5577 
     35 CA        -73.9448   24.9699  -78.0643 C.3       7 UNK         0.0284 
     36 CB        -73.8839   23.4390  -78.1785 C.3       7 UNK        -0.1958 
     37 N         -75.2604   25.3936  -77.5729 N.am      7 UNK        -0.4454 
     38 C         -75.6806   26.6678  -77.5766 C.2       7 UNK         0.5089 
     39 O         -75.0407   27.5978  -78.0655 O.2       7 UNK        -0.5125 
     40 CA        -77.0393   26.9691  -76.9233 C.3       6 UNK         0.0408 
     41 CB        -78.1477   26.8791  -77.9783 C.3       6 UNK        -0.1791 
     42 N         -77.3439   26.1104  -75.7706 N.am      6 UNK        -0.4762 
     43 C         -76.6377   26.1302  -74.6289 C.2       6 UNK         0.5007 
     44 O         -75.7009   26.9069  -74.4334 O.2       6 UNK        -0.5032 
     45 CA        -76.9511   25.0376  -73.5819 C.3       5 UNK         0.0783 
     46 C46       -78.2582   25.2901  -72.7804 C.3       11 UNK        -0.0857 
     47 S47       -78.0033   25.0250  -70.9877 S.3       11 UNK        -0.2512 
     48 C48       -78.3140   26.6738  -70.2611 C.3       11 UNK         0.0225 
     49 N         -76.9707   23.7126  -74.2013 N.am      5 UNK        -0.4615 
     50 C         -75.9169   23.1006  -74.7531 C.2       4 UNK         0.5053 
     51 O         -74.7794   23.5672  -74.7505 O.2       4 UNK        -0.5105 
     52 CA        -76.1797   21.7543  -75.4512 C.3       4 UNK         0.0263 
     53 CB        -75.8704   20.5894  -74.4979 C.3       4 UNK        -0.1981 
     54 N         -77.5474   21.6156  -75.9607 N.am      4 UNK        -0.4224 
     55 C         -78.0997   22.3779  -76.9160 C.2       3 UNK         0.4895 
     56 O         -77.4875   23.2681  -77.5120 O.2       3 UNK        -0.5091 
     57 CA        -79.5805   22.0991  -77.2592 C.3       3 UNK         0.0250 
     58 CB        -80.3317   21.2951  -76.1720 C.3       3 UNK        -0.1996 
     59 N         -80.3451   23.3094  -77.5900 N.am      3 UNK        -0.4254 
     60 C         -80.4875   24.4133  -76.8404 C.2       2 UNK         0.5004 
     61 O         -79.8942   24.6006  -75.7742 O.2       2 UNK        -0.5226 
     62 CA        -81.4204   25.4981  -77.4231 C.3       2 UNK         0.0269 
     63 CB        -82.8351   24.9530  -77.7238 C.3       2 UNK        -0.1926 
     64 N         -81.4797   26.7178  -76.5995 N.am      2 UNK        -0.4687 
     65 C         -82.0198   26.8703  -75.3802 C.2       1 UNK         0.5165 
     66 O         -82.6966   26.0023  -74.8217 O.2       1 UNK        -0.5079 
     67 H67       -82.4516   28.3851  -70.2498 H         1 UNK         0.0900 
     68 H68       -83.5657   27.1032  -70.7333 H         1 UNK         0.0900 
     69 H69       -83.8286   28.7579  -71.2886 H         1 UNK         0.0900 
     70 H70       -83.2604   29.0079  -73.4112 H         1 UNK         0.2959 
     71 H71       -82.2971   28.9704  -75.3594 H         1 UNK         0.1079 
     72 H72       -79.7018   27.8879  -74.1577 H         1 UNK         0.0837 
     73 H73       -79.8710   28.7029  -75.6797 H         1 UNK         0.0837 
     74 H74       -77.8750   31.3908  -73.6359 H         1 UNK         0.0685 
     75 H75       -77.7399   30.0525  -74.7493 H         1 UNK         0.0685 
     76 H76       -79.2735   28.4895  -72.0049 H         1 UNK         0.1434 
     77 H77       -75.6562   27.2635  -70.0957 H         1 UNK         0.1329 
     78 H78       -75.5531   30.3200  -73.1001 H         1 UNK         0.1335 
     79 H79       -73.5710   28.2278  -70.6567 H         1 UNK         0.0680 
     80 H80       -73.4705   28.7158  -72.3272 H         1 UNK         0.0680 
     81 H81       -71.1800   31.1848  -70.4203 H         1 UNK         0.1032 
     82 H82       -71.2833   29.6008  -71.1378 H         1 UNK         0.1032 
     83 H83       -71.7989   32.2311  -72.6314 H         1 UNK         0.0461 
     84 H84       -69.6679   30.3819  -74.4967 H         1 UNK         0.3453 
     85 H85       -68.1983   31.1268  -73.9210 H         1 UNK         0.3453 
     86 H86       -71.4514   29.5568  -73.9007 H         1 UNK         0.2984 
     87 H87       -74.4638   29.8293  -75.6557 H         1 UNK         0.0554 
     88 H88       -73.1047   29.4254  -77.7035 H         1 UNK         0.0847 
     89 H89       -71.6656   30.0332  -76.8903 H         1 UNK         0.0847 
     90 H90       -73.0175   31.1080  -77.2106 H         1 UNK         0.0847 
     91 H91       -74.0039   27.7569  -75.1545 H         1 UNK         0.3141 
     92 H92       -71.0733   25.7300  -75.0868 H         1 UNK         0.0743 
     93 H93       -71.7909   26.1698  -72.7376 H         1 UNK         0.0784 
     94 H94       -73.4799   26.1030  -73.2185 H         1 UNK         0.0784 
     95 H95       -72.4716   24.6642  -73.3344 H         1 UNK         0.0784 
     96 H96       -73.8239   25.0855  -75.4930 H         1 UNK         0.3213 
     97 H97       -73.8237   25.3847  -79.0676 H         1 UNK         0.0855 
     98 H98       -73.8375   22.9627  -77.2004 H         1 UNK         0.0814 
     99 H99       -72.9910   23.1313  -78.7239 H         1 UNK         0.0814 
    100 H100      -74.7460   23.0393  -78.7131 H         1 UNK         0.0814 
    101 H101      -75.8885   24.6777  -77.2247 H         1 UNK         0.3105 
    102 H102      -77.0034   28.0003  -76.5647 H         1 UNK         0.0547 
    103 H103      -79.0807   27.2804  -77.5949 H         1 UNK         0.0837 
    104 H104      -77.8948   27.4652  -78.8632 H         1 UNK         0.0837 
    105 H105      -78.3118   25.8524  -78.3064 H         1 UNK         0.0837 
    106 H106      -78.1041   25.4413  -75.8665 H         1 UNK         0.3020 
    107 H107      -76.1032   25.0564  -72.8925 H         1 UNK         0.1245 
    108 H108      -79.0605   24.6268  -73.1081 H         1 UNK         0.0781 
    109 H109      -78.6585   26.2843  -72.9541 H         1 UNK         0.0781 
    110 H110      -78.0291   26.6587  -69.2083 H         1 UNK         0.0836 
    111 H111      -79.3857   26.8756  -70.2820 H         1 UNK         0.0836 
    112 H112      -77.8753   23.2721  -74.2799 H         1 UNK         0.3022 
    113 H113      -75.5042   21.6825  -76.3041 H         1 UNK         0.0747 
    114 H114      -75.9711   19.6269  -74.9999 H         1 UNK         0.0793 
    115 H115      -74.8467   20.6525  -74.1258 H         1 UNK         0.0793 
    116 H116      -76.5323   20.5889  -73.6309 H         1 UNK         0.0793 
    117 H117      -78.1196   20.9037  -75.5300 H         1 UNK         0.3047 
    118 H118      -79.5642   21.4940  -78.1668 H         1 UNK         0.0822 
    119 H119      -79.9028   20.3020  -76.0334 H         1 UNK         0.0807 
    120 H120      -81.3754   21.1452  -76.4491 H         1 UNK         0.0807 
    121 H121      -80.3209   21.8060  -75.2080 H         1 UNK         0.0807 
    122 H122      -80.8214   23.2798  -78.4803 H         1 UNK         0.2946 
    123 H123      -80.9802   25.8033  -78.3738 H         1 UNK         0.1144 
    124 H124      -82.8141   24.2093  -78.5207 H         1 UNK         0.0793 
    125 H125      -83.5057   25.7480  -78.0501 H         1 UNK         0.0793 
    126 H126      -83.2827   24.4749  -76.8520 H         1 UNK         0.0793 
    127 H127      -80.9780   27.5057  -76.9821 H         1 UNK         0.2896 
@<TRIPOS>BOND
     1    1    2 1    
     2    1   67 1    
     3    1   68 1    
     4    1   69 1    
     5    2    3 2    
     6    2    4 am   BACKBONE|DICT|INTERRES
     7    4    5 1    
     8    4   70 1    
     9    5    6 1    
    10    5   65 1    
    11    5   71 1    
    12    6    7 1    
    13    6   72 1    
    14    6   73 1    
    15    7    8 1    
    16    8    9 1    
    17    8   74 1    
    18    8   75 1    
    19    9   10 ar   
    20    9   14 ar   
    21   10   11 ar   
    22   10   76 1    
    23   11   12 ar   
    24   11   48 1    
    25   12   13 ar   
    26   12   77 1    
    27   13   14 ar   
    28   13   15 1    
    29   14   78 1    
    30   15   16 1    
    31   15   79 1    
    32   15   80 1    
    33   16   17 1    
    34   17   18 1    
    35   17   81 1    
    36   17   82 1    
    37   18   19 1    
    38   18   22 1    
    39   18   83 1    
    40   19   20 am   BACKBONE|DICT|INTERRES
    41   19   21 2    
    42   20   84 1    
    43   20   85 1    
    44   22   23 am   BACKBONE|DICT|INTERRES
    45   22   86 1    
    46   23   24 2    
    47   23   25 1    
    48   25   26 1    
    49   25   27 1    
    50   25   87 1    
    51   26   88 1    
    52   26   89 1    
    53   26   90 1    
    54   27   28 am   BACKBONE|DICT|INTERRES
    55   27   91 1    
    56   28   29 2    
    57   28   30 1    
    58   30   31 1    
    59   30   32 1    
    60   30   92 1    
    61   31   93 1    
    62   31   94 1    
    63   31   95 1    
    64   32   33 am   BACKBONE|DICT|INTERRES
    65   32   96 1    
    66   33   34 2    
    67   33   35 1    
    68   35   36 1    
    69   35   37 1    
    70   35   97 1    
    71   36   98 1    
    72   36   99 1    
    73   36  100 1    
    74   37   38 am   BACKBONE|DICT|INTERRES
    75   37  101 1    
    76   38   39 2    
    77   38   40 1    
    78   40   41 1    
    79   40   42 1    
    80   40  102 1    
    81   41  103 1    
    82   41  104 1    
    83   41  105 1    
    84   42   43 am   BACKBONE|DICT|INTERRES
    85   42  106 1    
    86   43   44 2    
    87   43   45 1    
    88   45   46 1    
    89   45   49 1    
    90   45  107 1    
    91   46   47 1    
    92   46  108 1    
    93   46  109 1    
    94   47   48 1    
    95   48  110 1    
    96   48  111 1    
    97   49   50 am   BACKBONE|DICT|INTERRES
    98   49  112 1    
    99   50   51 2    
   100   50   52 1    
   101   52   53 1    
   102   52   54 1    
   103   52  113 1    
   104   53  114 1    
   105   53  115 1    
   106   53  116 1    
   107   54   55 am   BACKBONE|DICT|INTERRES
   108   54  117 1    
   109   55   56 2    
   110   55   57 1    
   111   57   58 1    
   112   57   59 1    
   113   57  118 1    
   114   58  119 1    
   115   58  120 1    
   116   58  121 1    
   117   59   60 am   BACKBONE|DICT|INTERRES
   118   59  122 1    
   119   60   61 2    
   120   60   62 1    
   121   62   63 1    
   122   62   64 1    
   123   62  123 1    
   124   63  124 1    
   125   63  125 1    
   126   63  126 1    
   127   64   65 am   BACKBONE|DICT|INTERRES
   128   64  127 1    
   129   65   66 2    
@<TRIPOS>SUBSTRUCTURE
     1 UNK         1 GROUP             0       ****    0 ROOT    
