@<TRIPOS>MOLECULE
3R135
127   129    1
SMALL
USER_CHARGES


@<TRIPOS>ATOM
      1 CA        -77.4355   22.4008  -75.3595 C.3       0 UNK        -0.1998 
      2 C         -77.6082   22.7487  -73.8888 C.2       0 UNK         0.4909 
      3 O         -77.1911   21.9697  -73.0313 O.2       0 UNK        -0.5240 
      4 N         -78.2280   23.8979  -73.5863 N.am      1 UNK        -0.4739 
      5 CA        -78.6244   24.2770  -72.2237 C.3       1 UNK         0.0864 
      6 C6        -78.6424   25.8145  -72.0148 C.3       11 UNK        -0.0881 
      7 S7        -79.9832   26.7111  -72.8751 S.3       11 UNK        -0.2682 
      8 C8        -79.7305   28.4027  -72.2574 C.3       11 UNK         0.0289 
      9 C9        -78.6189   29.0913  -73.0287 C.ar      11 UNK        -0.0687 
     10 C10       -78.8977   29.6857  -74.2611 C.ar      11 UNK        -0.0823 
     11 C11       -77.8738   30.2527  -75.0246 C.ar      11 UNK        -0.0830 
     12 C12       -76.5677   30.2608  -74.5228 C.ar      11 UNK        -0.1021 
     13 C13       -76.2847   29.6993  -73.2734 C.ar      11 UNK        -0.0753 
     14 C14       -77.3132   29.1110  -72.5324 C.ar      11 UNK        -0.0933 
     15 C15       -74.8669   29.7108  -72.7273 C.3       11 UNK         0.0166 
     16 S16       -74.5466   31.2106  -71.7521 S.3       11 UNK        -0.2615 
     17 C17       -72.9075   30.8256  -71.0454 C.3       11 UNK        -0.0865 
     18 CA        -71.7576   31.6132  -71.7230 C.3       10 UNK         0.0862 
     19 C         -70.4284   31.4046  -70.9460 C.2       10 UNK         0.5551 
     20 N         -70.1225   32.2774  -69.9961 N.am      10 UNK        -0.7319 
     21 O         -69.7009   30.4377  -71.1658 O.2       10 UNK        -0.5018 
     22 N         -71.6303   31.2571  -73.1420 N.am      10 UNK        -0.4509 
     23 C         -70.8628   31.8873  -74.0362 C.2       10 UNK         0.4899 
     24 O         -70.2331   32.9190  -73.7955 O.2       10 UNK        -0.4839 
     25 CA        -70.7771   31.2316  -75.4286 C.3       9 UNK         0.0222 
     26 CB        -70.0097   32.0976  -76.4456 C.3       9 UNK        -0.1966 
     27 N         -70.1519   29.9069  -75.3626 N.am      9 UNK        -0.4218 
     28 C         -70.7557   28.7884  -74.9425 C.2       9 UNK         0.5020 
     29 O         -71.9237   28.7448  -74.5479 O.2       9 UNK        -0.5274 
     30 CA        -69.9063   27.5117  -74.9111 C.3       8 UNK         0.0270 
     31 CB        -69.4944   27.1781  -73.4677 C.3       8 UNK        -0.1976 
     32 N         -70.6795   26.4014  -75.4632 N.am      8 UNK        -0.4313 
     33 C         -70.7954   26.1357  -76.7707 C.2       8 UNK         0.5041 
     34 O         -70.1536   26.7162  -77.6477 O.2       8 UNK        -0.5577 
     35 CA        -71.7999   25.0402  -77.1728 C.3       7 UNK         0.0284 
     36 CB        -71.1026   23.6721  -77.2520 C.3       7 UNK        -0.1958 
     37 N         -72.9537   24.9488  -76.2708 N.am      7 UNK        -0.4454 
     38 C         -73.9140   25.8786  -76.1758 C.2       7 UNK         0.5089 
     39 O         -73.9378   26.9139  -76.8460 O.2       7 UNK        -0.5125 
     40 CA        -75.0135   25.6067  -75.1315 C.3       6 UNK         0.0408 
     41 CB        -74.5293   26.0123  -73.7305 C.3       6 UNK        -0.1791 
     42 N         -76.2527   26.3269  -75.4313 N.am      6 UNK        -0.4762 
     43 C         -77.0463   26.0743  -76.4809 C.2       6 UNK         0.5007 
     44 O         -76.8609   25.1525  -77.2797 O.2       6 UNK        -0.5032 
     45 CA        -78.2193   27.0515  -76.6888 C.3       5 UNK         0.0783 
     46 C46       -77.7357   28.2743  -77.5109 C.3       11 UNK        -0.0857 
     47 S47       -78.9593   29.6264  -77.5200 S.3       11 UNK        -0.2512 
     48 C48       -78.1788   30.8388  -76.3982 C.3       11 UNK         0.0225 
     49 N         -79.3795   26.4081  -77.3162 N.am      5 UNK        -0.4615 
     50 C         -80.0891   25.3958  -76.8036 C.2       4 UNK         0.5053 
     51 O         -79.8679   24.8718  -75.7076 O.2       4 UNK        -0.5105 
     52 CA        -81.2332   24.8704  -77.6792 C.3       4 UNK         0.0263 
     53 CB        -80.6929   24.0587  -78.8705 C.3       4 UNK        -0.1981 
     54 N         -82.0989   24.0189  -76.8694 N.am      4 UNK        -0.4224 
     55 C         -83.4289   23.9220  -76.9734 C.2       3 UNK         0.4895 
     56 O         -84.0925   24.5276  -77.8163 O.2       3 UNK        -0.5091 
     57 CA        -84.1535   22.9825  -75.9879 C.3       3 UNK         0.0250 
     58 CB        -84.6529   21.7238  -76.7174 C.3       3 UNK        -0.1996 
     59 N         -83.3368   22.5701  -74.8402 N.am      3 UNK        -0.4254 
     60 C         -83.0302   23.3510  -73.7951 C.2       2 UNK         0.5004 
     61 O         -83.4097   24.5166  -73.6809 O.2       2 UNK        -0.5226 
     62 CA        -82.1314   22.7484  -72.7068 C.3       2 UNK         0.0269 
     63 CB        -82.0038   21.2100  -72.7523 C.3       2 UNK        -0.1926 
     64 N         -80.8140   23.3587  -72.8341 N.am      2 UNK        -0.4687 
     65 C         -79.9591   23.6044  -71.8332 C.2       1 UNK         0.5165 
     66 O         -80.1767   23.3121  -70.6562 O.2       1 UNK        -0.5079 
     67 H67       -77.9812   23.0826  -76.0088 H         1 UNK         0.0900 
     68 H68       -77.8041   21.3936  -75.5512 H         1 UNK         0.0900 
     69 H69       -76.3828   22.4358  -75.6366 H         1 UNK         0.0900 
     70 H70       -78.6164   24.4681  -74.3342 H         1 UNK         0.2959 
     71 H71       -77.8745   23.8832  -71.5335 H         1 UNK         0.1079 
     72 H72       -78.7214   26.0323  -70.9481 H         1 UNK         0.0837 
     73 H73       -77.6872   26.2337  -72.3321 H         1 UNK         0.0837 
     74 H74       -80.6595   28.9630  -72.3726 H         1 UNK         0.0685 
     75 H75       -79.5139   28.3858  -71.1881 H         1 UNK         0.0685 
     76 H76       -79.9078   29.6675  -74.6480 H         1 UNK         0.1434 
     77 H77       -75.7681   30.7032  -75.1017 H         1 UNK         0.1329 
     78 H78       -77.0953   28.6612  -71.5733 H         1 UNK         0.1335 
     79 H79       -74.7024   28.8301  -72.1047 H         1 UNK         0.0680 
     80 H80       -74.1527   29.6531  -73.5484 H         1 UNK         0.0680 
     81 H81       -72.7183   29.7514  -71.0941 H         1 UNK         0.1032 
     82 H82       -72.9550   31.0695  -69.9821 H         1 UNK         0.1032 
     83 H83       -72.0058   32.6760  -71.6816 H         1 UNK         0.0461 
     84 H84       -70.7177   33.0680  -69.8026 H         1 UNK         0.3453 
     85 H85       -69.2724   32.1504  -69.4693 H         1 UNK         0.3453 
     86 H86       -72.0465   30.3772  -73.4286 H         1 UNK         0.2984 
     87 H87       -71.7990   31.1186  -75.7976 H         1 UNK         0.0554 
     88 H88       -70.0155   31.6446  -77.4372 H         1 UNK         0.0847 
     89 H89       -68.9702   32.2465  -76.1502 H         1 UNK         0.0847 
     90 H90       -70.4656   33.0840  -76.5405 H         1 UNK         0.0847 
     91 H91       -69.1782   29.8590  -75.6272 H         1 UNK         0.3141 
     92 H92       -69.0018   27.6575  -75.5059 H         1 UNK         0.0743 
     93 H93       -68.9100   27.9899  -73.0317 H         1 UNK         0.0784 
     94 H94       -68.8804   26.2782  -73.4277 H         1 UNK         0.0784 
     95 H95       -70.3615   27.0228  -72.8239 H         1 UNK         0.0784 
     96 H96       -71.2866   25.9132  -74.8224 H         1 UNK         0.3213 
     97 H97       -72.1719   25.2899  -78.1691 H         1 UNK         0.0855 
     98 H98       -70.2546   23.7070  -77.9377 H         1 UNK         0.0814 
     99 H99       -71.7803   22.9008  -77.6185 H         1 UNK         0.0814 
    100 H100      -70.7221   23.3534  -76.2808 H         1 UNK         0.0814 
    101 H101      -73.0136   24.1233  -75.6914 H         1 UNK         0.3105 
    102 H102      -75.2357   24.5385  -75.1284 H         1 UNK         0.0547 
    103 H103      -74.2220   27.0578  -73.7033 H         1 UNK         0.0837 
    104 H104      -73.6689   25.4165  -73.4241 H         1 UNK         0.0837 
    105 H105      -75.3045   25.8650  -72.9789 H         1 UNK         0.0837 
    106 H106      -76.4439   27.1384  -74.8609 H         1 UNK         0.3020 
    107 H107      -78.5419   27.3836  -75.7006 H         1 UNK         0.1245 
    108 H108      -77.5341   27.9844  -78.5440 H         1 UNK         0.0781 
    109 H109      -76.7897   28.6611  -77.1256 H         1 UNK         0.0781 
    110 H110      -78.8461   31.6935  -76.2800 H         1 UNK         0.0836 
    111 H111      -77.2713   31.2204  -76.8688 H         1 UNK         0.0836 
    112 H112      -79.6296   26.7615  -78.2275 H         1 UNK         0.3022 
    113 H113      -81.7982   25.7304  -78.0455 H         1 UNK         0.0747 
    114 H114      -81.5046   23.6813  -79.4927 H         1 UNK         0.0793 
    115 H115      -80.0541   24.6694  -79.5095 H         1 UNK         0.0793 
    116 H116      -80.1010   23.2046  -78.5383 H         1 UNK         0.0793 
    117 H117      -81.6294   23.5496  -76.1077 H         1 UNK         0.3047 
    118 H118      -85.0236   23.5243  -75.6104 H         1 UNK         0.0822 
    119 H119      -85.2346   21.0838  -76.0537 H         1 UNK         0.0807 
    120 H120      -83.8270   21.1337  -77.1168 H         1 UNK         0.0807 
    121 H121      -85.2990   21.9878  -77.5560 H         1 UNK         0.0807 
    122 H122      -82.9820   21.6244  -74.8537 H         1 UNK         0.2946 
    123 H123      -82.5725   23.0323  -71.7483 H         1 UNK         0.1144 
    124 H124      -82.9828   20.7299  -72.7172 H         1 UNK         0.0793 
    125 H125      -81.4411   20.8425  -71.8938 H         1 UNK         0.0793 
    126 H126      -81.4885   20.8646  -73.6493 H         1 UNK         0.0793 
    127 H127      -80.5708   23.7124  -73.7512 H         1 UNK         0.2896 
@<TRIPOS>BOND
     1    1    2 1    
     2    1   67 1    
     3    1   68 1    
     4    1   69 1    
     5    2    3 2    
     6    2    4 am   BACKBONE|DICT|INTERRES
     7    4    5 1    
     8    4   70 1    
     9    5    6 1    
    10    5   65 1    
    11    5   71 1    
    12    6    7 1    
    13    6   72 1    
    14    6   73 1    
    15    7    8 1    
    16    8    9 1    
    17    8   74 1    
    18    8   75 1    
    19    9   10 ar   
    20    9   14 ar   
    21   10   11 ar   
    22   10   76 1    
    23   11   12 ar   
    24   11   48 1    
    25   12   13 ar   
    26   12   77 1    
    27   13   14 ar   
    28   13   15 1    
    29   14   78 1    
    30   15   16 1    
    31   15   79 1    
    32   15   80 1    
    33   16   17 1    
    34   17   18 1    
    35   17   81 1    
    36   17   82 1    
    37   18   19 1    
    38   18   22 1    
    39   18   83 1    
    40   19   20 am   BACKBONE|DICT|INTERRES
    41   19   21 2    
    42   20   84 1    
    43   20   85 1    
    44   22   23 am   BACKBONE|DICT|INTERRES
    45   22   86 1    
    46   23   24 2    
    47   23   25 1    
    48   25   26 1    
    49   25   27 1    
    50   25   87 1    
    51   26   88 1    
    52   26   89 1    
    53   26   90 1    
    54   27   28 am   BACKBONE|DICT|INTERRES
    55   27   91 1    
    56   28   29 2    
    57   28   30 1    
    58   30   31 1    
    59   30   32 1    
    60   30   92 1    
    61   31   93 1    
    62   31   94 1    
    63   31   95 1    
    64   32   33 am   BACKBONE|DICT|INTERRES
    65   32   96 1    
    66   33   34 2    
    67   33   35 1    
    68   35   36 1    
    69   35   37 1    
    70   35   97 1    
    71   36   98 1    
    72   36   99 1    
    73   36  100 1    
    74   37   38 am   BACKBONE|DICT|INTERRES
    75   37  101 1    
    76   38   39 2    
    77   38   40 1    
    78   40   41 1    
    79   40   42 1    
    80   40  102 1    
    81   41  103 1    
    82   41  104 1    
    83   41  105 1    
    84   42   43 am   BACKBONE|DICT|INTERRES
    85   42  106 1    
    86   43   44 2    
    87   43   45 1    
    88   45   46 1    
    89   45   49 1    
    90   45  107 1    
    91   46   47 1    
    92   46  108 1    
    93   46  109 1    
    94   47   48 1    
    95   48  110 1    
    96   48  111 1    
    97   49   50 am   BACKBONE|DICT|INTERRES
    98   49  112 1    
    99   50   51 2    
   100   50   52 1    
   101   52   53 1    
   102   52   54 1    
   103   52  113 1    
   104   53  114 1    
   105   53  115 1    
   106   53  116 1    
   107   54   55 am   BACKBONE|DICT|INTERRES
   108   54  117 1    
   109   55   56 2    
   110   55   57 1    
   111   57   58 1    
   112   57   59 1    
   113   57  118 1    
   114   58  119 1    
   115   58  120 1    
   116   58  121 1    
   117   59   60 am   BACKBONE|DICT|INTERRES
   118   59  122 1    
   119   60   61 2    
   120   60   62 1    
   121   62   63 1    
   122   62   64 1    
   123   62  123 1    
   124   63  124 1    
   125   63  125 1    
   126   63  126 1    
   127   64   65 am   BACKBONE|DICT|INTERRES
   128   64  127 1    
   129   65   66 2    
@<TRIPOS>SUBSTRUCTURE
     1 UNK         1 GROUP             0       ****    0 ROOT    
