@<TRIPOS>MOLECULE
3R135
127   129    1
SMALL
USER_CHARGES


@<TRIPOS>ATOM
      1 CA        -85.5945   28.1720  -72.8460 C.3       0 UNK        -0.1998 
      2 C         -84.4427   28.5374  -73.7697 C.2       0 UNK         0.4909 
      3 O         -84.6739   28.9200  -74.9177 O.2       0 UNK        -0.5240 
      4 N         -83.1997   28.4145  -73.2861 N.am      1 UNK        -0.4739 
      5 CA        -81.9628   28.7011  -74.0242 C.3       1 UNK         0.0864 
      6 C6        -80.8177   29.0931  -73.0481 C.3       11 UNK        -0.0881 
      7 S7        -79.5700   30.2101  -73.7846 S.3       11 UNK        -0.2682 
      8 C8        -78.1735   29.1082  -74.1943 C.3       11 UNK         0.0289 
      9 C9        -77.4926   28.5222  -72.9650 C.ar      11 UNK        -0.0687 
     10 C10       -77.8686   27.2661  -72.4793 C.ar      11 UNK        -0.0823 
     11 C11       -77.2562   26.7279  -71.3436 C.ar      11 UNK        -0.0830 
     12 C12       -76.2261   27.4387  -70.7203 C.ar      11 UNK        -0.1021 
     13 C13       -75.8305   28.6911  -71.2021 C.ar      11 UNK        -0.0753 
     14 C14       -76.4748   29.2306  -72.3203 C.ar      11 UNK        -0.0933 
     15 C15       -74.7396   29.4734  -70.4826 C.3       11 UNK         0.0166 
     16 S16       -73.2250   29.6237  -71.4822 S.3       11 UNK        -0.2615 
     17 C17       -73.3371   31.3709  -72.0107 C.3       11 UNK        -0.0865 
     18 CA        -72.2923   31.7736  -73.0829 C.3       10 UNK         0.0862 
     19 C         -70.8503   31.8741  -72.4987 C.2       10 UNK         0.5551 
     20 N         -69.8716   31.1160  -72.9801 N.am      10 UNK        -0.7319 
     21 O         -70.6133   32.6734  -71.5959 O.2       10 UNK        -0.5018 
     22 N         -72.4220   30.9451  -74.2888 N.am      10 UNK        -0.4509 
     23 C         -71.9858   31.2844  -75.5077 C.2       10 UNK         0.4899 
     24 O         -71.5314   32.3958  -75.7846 O.2       10 UNK        -0.4839 
     25 CA        -72.0682   30.1928  -76.5951 C.3       9 UNK         0.0222 
     26 CB        -71.0681   30.4280  -77.7465 C.3       9 UNK        -0.1966 
     27 N         -71.9359   28.8228  -76.0780 N.am      9 UNK        -0.4218 
     28 C         -70.9100   28.3137  -75.3720 C.2       9 UNK         0.5020 
     29 O         -69.9347   28.9746  -75.0120 O.2       9 UNK        -0.5274 
     30 CA        -70.9811   26.8273  -74.9698 C.3       8 UNK         0.0270 
     31 CB        -71.3472   26.6995  -73.4819 C.3       8 UNK        -0.1976 
     32 N         -71.9306   26.0500  -75.7710 N.am      8 UNK        -0.4313 
     33 C         -71.7626   25.7532  -77.0702 C.2       8 UNK         0.5041 
     34 O         -70.7249   25.9898  -77.6899 O.2       8 UNK        -0.5577 
     35 CA        -72.9483   25.1188  -77.8260 C.3       7 UNK         0.0284 
     36 CB        -72.6974   23.6198  -78.0551 C.3       7 UNK        -0.1958 
     37 N         -74.2469   25.2910  -77.1683 N.am      7 UNK        -0.4454 
     38 C         -74.8353   26.4636  -76.8841 C.2       7 UNK         0.5089 
     39 O         -74.3720   27.5567  -77.2105 O.2       7 UNK        -0.5125 
     40 CA        -76.1157   26.4149  -76.0297 C.3       6 UNK         0.0408 
     41 CB        -77.3539   26.5712  -76.9250 C.3       6 UNK        -0.1791 
     42 N         -76.2374   25.1963  -75.2176 N.am      6 UNK        -0.4762 
     43 C         -75.3631   24.8223  -74.2658 C.2       6 UNK         0.5007 
     44 O         -74.3645   25.4826  -73.9766 O.2       6 UNK        -0.5032 
     45 CA        -75.5747   23.4619  -73.5659 C.3       5 UNK         0.0783 
     46 C46       -76.0330   23.6280  -72.0958 C.3       11 UNK        -0.0857 
     47 S47       -77.8033   24.0413  -71.9256 S.3       11 UNK        -0.2512 
     48 C48       -77.7569   25.4208  -70.7398 C.3       11 UNK         0.0225 
     49 N         -76.4440   22.5431  -74.3073 N.am      5 UNK        -0.4615 
     50 C         -76.1616   21.9822  -75.4891 C.2       4 UNK         0.5053 
     51 O         -75.0947   22.1432  -76.0814 O.2       4 UNK        -0.5105 
     52 CA        -77.2711   21.1299  -76.1366 C.3       4 UNK         0.0263 
     53 CB        -77.0782   19.6463  -75.7844 C.3       4 UNK        -0.1981 
     54 N         -78.6400   21.5402  -75.7858 N.am      4 UNK        -0.4224 
     55 C         -79.1579   22.7519  -76.0309 C.2       3 UNK         0.4895 
     56 O         -78.5163   23.6717  -76.5452 O.2       3 UNK        -0.5091 
     57 CA        -80.6159   22.9897  -75.6138 C.3       3 UNK         0.0250 
     58 CB        -80.7440   23.0690  -74.0792 C.3       3 UNK        -0.1996 
     59 N         -81.0390   24.2474  -76.2208 N.am      3 UNK        -0.4254 
     60 C         -82.2687   24.7659  -76.2665 C.2       2 UNK         0.5004 
     61 O         -83.2744   24.2122  -75.8167 O.2       2 UNK        -0.5226 
     62 CA        -82.3840   26.1591  -76.9151 C.3       2 UNK         0.0269 
     63 CB        -83.5854   26.2360  -77.8736 C.3       2 UNK        -0.1926 
     64 N         -82.4990   27.2306  -75.9213 N.am      2 UNK        -0.4687 
     65 C         -81.6061   27.5253  -74.9653 C.2       1 UNK         0.5165 
     66 O         -80.5594   26.8989  -74.8058 O.2       1 UNK        -0.5079 
     67 H67       -85.2451   27.8576  -71.8627 H         1 UNK         0.0900 
     68 H68       -86.2546   29.0287  -72.7132 H         1 UNK         0.0900 
     69 H69       -86.1757   27.3570  -73.2764 H         1 UNK         0.0900 
     70 H70       -83.0723   28.0617  -72.3479 H         1 UNK         0.2959 
     71 H71       -82.1554   29.5644  -74.6658 H         1 UNK         0.1079 
     72 H72       -80.3581   28.2196  -72.5895 H         1 UNK         0.0837 
     73 H73       -81.2366   29.6531  -72.2104 H         1 UNK         0.0837 
     74 H74       -77.4441   29.6795  -74.7704 H         1 UNK         0.0685 
     75 H75       -78.5091   28.3156  -74.8585 H         1 UNK         0.0685 
     76 H76       -78.6551   26.7127  -72.9743 H         1 UNK         0.1434 
     77 H77       -75.7495   27.0297  -69.8399 H         1 UNK         0.1329 
     78 H78       -76.1867   30.2034  -72.6911 H         1 UNK         0.1335 
     79 H79       -74.4778   28.9847  -69.5429 H         1 UNK         0.0680 
     80 H80       -75.1179   30.4598  -70.2107 H         1 UNK         0.0680 
     81 H81       -73.2500   32.0116  -71.1308 H         1 UNK         0.1032 
     82 H82       -74.3367   31.5549  -72.4047 H         1 UNK         0.1032 
     83 H83       -72.5418   32.7942  -73.3801 H         1 UNK         0.0461 
     84 H84       -70.0396   30.4472  -73.7253 H         1 UNK         0.3453 
     85 H85       -68.9472   31.2040  -72.5904 H         1 UNK         0.3453 
     86 H86       -72.7609   30.0064  -74.1382 H         1 UNK         0.2984 
     87 H87       -73.0737   30.2595  -77.0129 H         1 UNK         0.0554 
     88 H88       -71.2468   31.3872  -78.2339 H         1 UNK         0.0847 
     89 H89       -71.1564   29.6567  -78.5117 H         1 UNK         0.0847 
     90 H90       -70.0372   30.4305  -77.3907 H         1 UNK         0.0847 
     91 H91       -72.7026   28.2036  -76.3262 H         1 UNK         0.3141 
     92 H92       -69.9862   26.4014  -75.1154 H         1 UNK         0.0743 
     93 H93       -71.3604   25.6574  -73.1624 H         1 UNK         0.0784 
     94 H94       -70.6241   27.2225  -72.8544 H         1 UNK         0.0784 
     95 H95       -72.3280   27.1271  -73.2692 H         1 UNK         0.0784 
     96 H96       -72.8076   25.8088  -75.3193 H         1 UNK         0.3213 
     97 H97       -73.0082   25.6108  -78.7990 H         1 UNK         0.0855 
     98 H98       -72.6353   23.0736  -77.1129 H         1 UNK         0.0814 
     99 H99       -71.7601   23.4568  -78.5889 H         1 UNK         0.0814 
    100 H100      -73.4911   23.1691  -78.6513 H         1 UNK         0.0814 
    101 H101      -74.7000   24.4469  -76.8416 H         1 UNK         0.3105 
    102 H102      -76.0810   27.2600  -75.3398 H         1 UNK         0.0547 
    103 H103      -77.3884   25.8056  -77.7009 H         1 UNK         0.0837 
    104 H104      -77.3522   27.5405  -77.4250 H         1 UNK         0.0837 
    105 H105      -78.2767   26.5024  -76.3496 H         1 UNK         0.0837 
    106 H106      -77.0178   24.5856  -75.4372 H         1 UNK         0.3020 
    107 H107      -74.5849   23.0000  -73.5399 H         1 UNK         0.1245 
    108 H108      -75.4206   24.3715  -71.5811 H         1 UNK         0.0781 
    109 H109      -75.8655   22.6932  -71.5590 H         1 UNK         0.0781 
    110 H110      -77.1557   25.1281  -69.8775 H         1 UNK         0.0836 
    111 H111      -78.7674   25.5838  -70.3628 H         1 UNK         0.0836 
    112 H112      -77.3511   22.3763  -73.8965 H         1 UNK         0.3022 
    113 H113      -77.1664   21.2396  -77.2180 H         1 UNK         0.0747 
    114 H114      -77.7874   19.0147  -76.3199 H         1 UNK         0.0793 
    115 H115      -76.0774   19.3074  -76.0565 H         1 UNK         0.0793 
    116 H116      -77.2044   19.4648  -74.7162 H         1 UNK         0.0793 
    117 H117      -79.2257   20.8387  -75.3550 H         1 UNK         0.3047 
    118 H118      -81.2315   22.1771  -76.0043 H         1 UNK         0.0822 
    119 H119      -81.7858   23.1512  -73.7697 H         1 UNK         0.0807 
    120 H120      -80.2143   23.9360  -73.6826 H         1 UNK         0.0807 
    121 H121      -80.3369   22.1820  -73.5928 H         1 UNK         0.0807 
    122 H122      -80.2601   24.7725  -76.6020 H         1 UNK         0.2946 
    123 H123      -81.4794   26.3450  -77.4985 H         1 UNK         0.1144 
    124 H124      -84.5327   26.1242  -77.3443 H         1 UNK         0.0793 
    125 H125      -83.5361   25.4470  -78.6253 H         1 UNK         0.0793 
    126 H126      -83.6093   27.1878  -78.4046 H         1 UNK         0.0793 
    127 H127      -83.3606   27.7673  -75.9245 H         1 UNK         0.2896 
@<TRIPOS>BOND
     1    1    2 1    
     2    1   67 1    
     3    1   68 1    
     4    1   69 1    
     5    2    3 2    
     6    2    4 am   BACKBONE|DICT|INTERRES
     7    4    5 1    
     8    4   70 1    
     9    5    6 1    
    10    5   65 1    
    11    5   71 1    
    12    6    7 1    
    13    6   72 1    
    14    6   73 1    
    15    7    8 1    
    16    8    9 1    
    17    8   74 1    
    18    8   75 1    
    19    9   10 ar   
    20    9   14 ar   
    21   10   11 ar   
    22   10   76 1    
    23   11   12 ar   
    24   11   48 1    
    25   12   13 ar   
    26   12   77 1    
    27   13   14 ar   
    28   13   15 1    
    29   14   78 1    
    30   15   16 1    
    31   15   79 1    
    32   15   80 1    
    33   16   17 1    
    34   17   18 1    
    35   17   81 1    
    36   17   82 1    
    37   18   19 1    
    38   18   22 1    
    39   18   83 1    
    40   19   20 am   BACKBONE|DICT|INTERRES
    41   19   21 2    
    42   20   84 1    
    43   20   85 1    
    44   22   23 am   BACKBONE|DICT|INTERRES
    45   22   86 1    
    46   23   24 2    
    47   23   25 1    
    48   25   26 1    
    49   25   27 1    
    50   25   87 1    
    51   26   88 1    
    52   26   89 1    
    53   26   90 1    
    54   27   28 am   BACKBONE|DICT|INTERRES
    55   27   91 1    
    56   28   29 2    
    57   28   30 1    
    58   30   31 1    
    59   30   32 1    
    60   30   92 1    
    61   31   93 1    
    62   31   94 1    
    63   31   95 1    
    64   32   33 am   BACKBONE|DICT|INTERRES
    65   32   96 1    
    66   33   34 2    
    67   33   35 1    
    68   35   36 1    
    69   35   37 1    
    70   35   97 1    
    71   36   98 1    
    72   36   99 1    
    73   36  100 1    
    74   37   38 am   BACKBONE|DICT|INTERRES
    75   37  101 1    
    76   38   39 2    
    77   38   40 1    
    78   40   41 1    
    79   40   42 1    
    80   40  102 1    
    81   41  103 1    
    82   41  104 1    
    83   41  105 1    
    84   42   43 am   BACKBONE|DICT|INTERRES
    85   42  106 1    
    86   43   44 2    
    87   43   45 1    
    88   45   46 1    
    89   45   49 1    
    90   45  107 1    
    91   46   47 1    
    92   46  108 1    
    93   46  109 1    
    94   47   48 1    
    95   48  110 1    
    96   48  111 1    
    97   49   50 am   BACKBONE|DICT|INTERRES
    98   49  112 1    
    99   50   51 2    
   100   50   52 1    
   101   52   53 1    
   102   52   54 1    
   103   52  113 1    
   104   53  114 1    
   105   53  115 1    
   106   53  116 1    
   107   54   55 am   BACKBONE|DICT|INTERRES
   108   54  117 1    
   109   55   56 2    
   110   55   57 1    
   111   57   58 1    
   112   57   59 1    
   113   57  118 1    
   114   58  119 1    
   115   58  120 1    
   116   58  121 1    
   117   59   60 am   BACKBONE|DICT|INTERRES
   118   59  122 1    
   119   60   61 2    
   120   60   62 1    
   121   62   63 1    
   122   62   64 1    
   123   62  123 1    
   124   63  124 1    
   125   63  125 1    
   126   63  126 1    
   127   64   65 am   BACKBONE|DICT|INTERRES
   128   64  127 1    
   129   65   66 2    
@<TRIPOS>SUBSTRUCTURE
     1 UNK         1 GROUP             0       ****    0 ROOT    
