@<TRIPOS>MOLECULE
3R135
127   129    1
SMALL
USER_CHARGES


@<TRIPOS>ATOM
      1 CA        -83.8820   27.5779  -77.7608 C.3       0 UNK        -0.1998 
      2 C         -84.5737   28.6333  -76.9001 C.2       0 UNK         0.4909 
      3 O         -85.7484   28.9176  -77.1268 O.2       0 UNK        -0.5240 
      4 N         -83.9013   29.2533  -75.9192 N.am      1 UNK        -0.4739 
      5 CA        -82.5386   28.9688  -75.4576 C.3       1 UNK         0.0864 
      6 C6        -82.0050   30.1313  -74.5834 C.3       11 UNK        -0.0881 
      7 S7        -80.2028   30.0371  -74.3133 S.3       11 UNK        -0.2682 
      8 C8        -80.1218   29.8433  -72.5043 C.3       11 UNK         0.0289 
      9 C9        -78.7990   29.2334  -72.0621 C.ar      11 UNK        -0.0687 
     10 C10       -78.7762   27.9644  -71.4751 C.ar      11 UNK        -0.0823 
     11 C11       -77.5699   27.3832  -71.0768 C.ar      11 UNK        -0.0830 
     12 C12       -76.3812   28.0908  -71.2604 C.ar      11 UNK        -0.1021 
     13 C13       -76.3854   29.3697  -71.8276 C.ar      11 UNK        -0.0753 
     14 C14       -77.6000   29.9351  -72.2284 C.ar      11 UNK        -0.0933 
     15 C15       -75.0769   30.1191  -72.0488 C.3       11 UNK         0.0166 
     16 S16       -73.9656   30.0203  -70.6042 S.3       11 UNK        -0.2615 
     17 C17       -72.3540   30.5230  -71.3032 C.3       11 UNK        -0.0865 
     18 CA        -71.5941   29.4237  -72.1059 C.3       10 UNK         0.0862 
     19 C         -71.4158   28.0834  -71.3385 C.2       10 UNK         0.5551 
     20 N         -71.9543   26.9623  -71.8050 N.am      10 UNK        -0.7319 
     21 O         -70.7444   28.0561  -70.3100 O.2       10 UNK        -0.5018 
     22 N         -72.1008   29.2776  -73.4783 N.am      10 UNK        -0.4509 
     23 C         -71.8327   30.1354  -74.4703 C.2       10 UNK         0.4899 
     24 O         -71.1321   31.1406  -74.3351 O.2       10 UNK        -0.4839 
     25 CA        -72.4636   29.8194  -75.8376 C.3       9 UNK         0.0222 
     26 CB        -71.9426   30.7252  -76.9735 C.3       9 UNK        -0.1966 
     27 N         -72.3459   28.4058  -76.2055 N.am      9 UNK        -0.4218 
     28 C         -71.2244   27.6873  -76.3746 C.2       9 UNK         0.5020 
     29 O         -70.0878   28.1434  -76.2427 O.2       9 UNK        -0.5274 
     30 CA        -71.3849   26.1988  -76.7429 C.3       8 UNK         0.0270 
     31 CB        -70.9810   25.3135  -75.5517 C.3       8 UNK        -0.1976 
     32 N         -72.7419   25.8385  -77.1654 N.am      8 UNK        -0.4313 
     33 C         -73.3087   26.1883  -78.3289 C.2       8 UNK         0.5041 
     34 O         -72.7105   26.7690  -79.2351 O.2       8 UNK        -0.5577 
     35 CA        -74.8112   25.8886  -78.4836 C.3       7 UNK         0.0284 
     36 CB        -75.0339   24.4474  -78.9661 C.3       7 UNK        -0.1958 
     37 N         -75.5676   26.1260  -77.2479 N.am      7 UNK        -0.4454 
     38 C         -75.7008   27.3241  -76.6577 C.2       7 UNK         0.5089 
     39 O         -75.2383   28.3665  -77.1174 O.2       7 UNK        -0.5125 
     40 CA        -76.4230   27.3660  -75.3051 C.3       6 UNK         0.0408 
     41 CB        -77.9410   27.4538  -75.5037 C.3       6 UNK        -0.1791 
     42 N         -76.0995   26.1989  -74.4898 N.am      6 UNK        -0.4762 
     43 C         -74.9572   26.0363  -73.8086 C.2       6 UNK         0.5007 
     44 O         -74.0502   26.8742  -73.7663 O.2       6 UNK        -0.5032 
     45 CA        -74.7785   24.6792  -73.0937 C.3       5 UNK         0.0783 
     46 C46       -75.3751   24.6714  -71.6642 C.3       11 UNK        -0.0857 
     47 S47       -77.2063   24.6725  -71.6074 S.3       11 UNK        -0.2512 
     48 C48       -77.5570   26.0094  -70.4199 C.3       11 UNK         0.0225 
     49 N         -75.2683   23.5488  -73.8896 N.am      5 UNK        -0.4615 
     50 C         -74.7478   23.1615  -75.0596 C.2       4 UNK         0.5053 
     51 O         -73.7945   23.7200  -75.5984 O.2       4 UNK        -0.5105 
     52 CA        -75.4125   21.9689  -75.7656 C.3       4 UNK         0.0263 
     53 CB        -74.8121   20.6491  -75.2562 C.3       4 UNK        -0.1981 
     54 N         -76.8749   21.9108  -75.6600 N.am      4 UNK        -0.4224 
     55 C         -77.7393   22.8853  -75.9821 C.2       3 UNK         0.4895 
     56 O         -77.3908   24.0253  -76.2951 O.2       3 UNK        -0.5091 
     57 CA        -79.2384   22.5184  -75.9797 C.3       3 UNK         0.0250 
     58 CB        -79.5379   21.0800  -75.5045 C.3       3 UNK        -0.1996 
     59 N         -80.0108   23.4506  -75.1591 N.am      3 UNK        -0.4254 
     60 C         -80.5521   24.5971  -75.5885 C.2       2 UNK         0.5004 
     61 O         -80.4782   25.0042  -76.7513 O.2       2 UNK        -0.5226 
     62 CA        -81.3263   25.4215  -74.5472 C.3       2 UNK         0.0269 
     63 CB        -80.6306   25.4659  -73.1719 C.3       2 UNK        -0.1926 
     64 N         -81.5168   26.7754  -75.0638 N.am      2 UNK        -0.4687 
     65 C         -82.4953   27.6160  -74.7141 C.2       1 UNK         0.5165 
     66 O         -83.3442   27.3639  -73.8557 O.2       1 UNK        -0.5079 
     67 H67       -83.7195   26.6600  -77.1968 H         1 UNK         0.0900 
     68 H68       -84.5010   27.3285  -78.6225 H         1 UNK         0.0900 
     69 H69       -82.9261   27.9341  -78.1424 H         1 UNK         0.0900 
     70 H70       -84.4030   29.9303  -75.3623 H         1 UNK         0.2959 
     71 H71       -81.8968   28.9061  -76.3383 H         1 UNK         0.1079 
     72 H72       -82.1971   31.0832  -75.0815 H         1 UNK         0.0837 
     73 H73       -82.5377   30.1847  -73.6318 H         1 UNK         0.0837 
     74 H74       -80.2545   30.8167  -72.0302 H         1 UNK         0.0685 
     75 H75       -80.9517   29.2184  -72.1702 H         1 UNK         0.0685 
     76 H76       -79.7009   27.4285  -71.3211 H         1 UNK         0.1434 
     77 H77       -75.4435   27.6508  -70.9558 H         1 UNK         0.1329 
     78 H78       -77.6162   30.9161  -72.6832 H         1 UNK         0.1335 
     79 H79       -74.6002   29.6835  -72.9244 H         1 UNK         0.0680 
     80 H80       -75.2610   31.1694  -72.2795 H         1 UNK         0.0680 
     81 H81       -72.4913   31.4208  -71.9073 H         1 UNK         0.1032 
     82 H82       -71.7308   30.8395  -70.4652 H         1 UNK         0.1032 
     83 H83       -70.5673   29.7808  -72.2107 H         1 UNK         0.0461 
     84 H84       -71.7959   26.1102  -71.2927 H         1 UNK         0.3453 
     85 H85       -72.5780   26.9633  -72.6029 H         1 UNK         0.3453 
     86 H86       -72.6886   28.4727  -73.6611 H         1 UNK         0.2984 
     87 H87       -73.5308   30.0159  -75.7265 H         1 UNK         0.0554 
     88 H88       -72.1388   31.7760  -76.7573 H         1 UNK         0.0847 
     89 H89       -72.4323   30.4933  -77.9194 H         1 UNK         0.0847 
     90 H90       -70.8669   30.6182  -77.1170 H         1 UNK         0.0847 
     91 H91       -73.2288   27.9363  -76.3619 H         1 UNK         0.3141 
     92 H92       -70.7040   25.9926  -77.5712 H         1 UNK         0.0743 
     93 H93       -71.6370   25.4696  -74.6943 H         1 UNK         0.0784 
     94 H94       -71.0180   24.2558  -75.8131 H         1 UNK         0.0784 
     95 H95       -69.9625   25.5308  -75.2272 H         1 UNK         0.0784 
     96 H96       -73.2783   25.2650  -76.5166 H         1 UNK         0.3213 
     97 H97       -75.2080   26.5658  -79.2431 H         1 UNK         0.0855 
     98 H98       -76.0952   24.2144  -79.0566 H         1 UNK         0.0814 
     99 H99       -74.5816   24.2941  -79.9467 H         1 UNK         0.0814 
    100 H100      -74.5853   23.7232  -78.2879 H         1 UNK         0.0814 
    101 H101      -76.0362   25.3278  -76.8262 H         1 UNK         0.3105 
    102 H102      -76.0997   28.2628  -74.7717 H         1 UNK         0.0547 
    103 H103      -78.2065   28.3453  -76.0729 H         1 UNK         0.0837 
    104 H104      -78.3276   26.5920  -76.0471 H         1 UNK         0.0837 
    105 H105      -78.4590   27.5145  -74.5473 H         1 UNK         0.0837 
    106 H106      -76.7579   25.4317  -74.5115 H         1 UNK         0.3020 
    107 H107      -73.6997   24.5400  -72.9905 H         1 UNK         0.1245 
    108 H108      -74.9699   25.4963  -71.0789 H         1 UNK         0.0781 
    109 H109      -75.0407   23.7715  -71.1456 H         1 UNK         0.0781 
    110 H110      -76.8323   25.9853  -69.6046 H         1 UNK         0.0836 
    111 H111      -78.5265   25.8124  -69.9598 H         1 UNK         0.0836 
    112 H112      -76.0662   23.0529  -73.5201 H         1 UNK         0.3022 
    113 H113      -75.1782   22.0509  -76.8275 H         1 UNK         0.0747 
    114 H114      -75.1739   19.7979  -75.8333 H         1 UNK         0.0793 
    115 H115      -73.7244   20.6555  -75.3425 H         1 UNK         0.0793 
    116 H116      -75.0546   20.4724  -74.2074 H         1 UNK         0.0793 
    117 H117      -77.2627   21.0141  -75.4051 H         1 UNK         0.3047 
    118 H118      -79.5727   22.5950  -77.0167 H         1 UNK         0.0822 
    119 H119      -79.0496   20.3384  -76.1385 H         1 UNK         0.0807 
    120 H120      -80.6071   20.8710  -75.5522 H         1 UNK         0.0807 
    121 H121      -79.2186   20.9104  -74.4752 H         1 UNK         0.0807 
    122 H122      -80.0984   23.2166  -74.1810 H         1 UNK         0.2946 
    123 H123      -82.3049   24.9490  -74.4349 H         1 UNK         0.1144 
    124 H124      -81.1805   26.0980  -72.4756 H         1 UNK         0.0793 
    125 H125      -79.6139   25.8507  -73.2511 H         1 UNK         0.0793 
    126 H126      -80.5736   24.4785  -72.7134 H         1 UNK         0.0793 
    127 H127      -80.8928   27.0149  -75.8238 H         1 UNK         0.2896 
@<TRIPOS>BOND
     1    1    2 1    
     2    1   67 1    
     3    1   68 1    
     4    1   69 1    
     5    2    3 2    
     6    2    4 am   BACKBONE|DICT|INTERRES
     7    4    5 1    
     8    4   70 1    
     9    5    6 1    
    10    5   65 1    
    11    5   71 1    
    12    6    7 1    
    13    6   72 1    
    14    6   73 1    
    15    7    8 1    
    16    8    9 1    
    17    8   74 1    
    18    8   75 1    
    19    9   10 ar   
    20    9   14 ar   
    21   10   11 ar   
    22   10   76 1    
    23   11   12 ar   
    24   11   48 1    
    25   12   13 ar   
    26   12   77 1    
    27   13   14 ar   
    28   13   15 1    
    29   14   78 1    
    30   15   16 1    
    31   15   79 1    
    32   15   80 1    
    33   16   17 1    
    34   17   18 1    
    35   17   81 1    
    36   17   82 1    
    37   18   19 1    
    38   18   22 1    
    39   18   83 1    
    40   19   20 am   BACKBONE|DICT|INTERRES
    41   19   21 2    
    42   20   84 1    
    43   20   85 1    
    44   22   23 am   BACKBONE|DICT|INTERRES
    45   22   86 1    
    46   23   24 2    
    47   23   25 1    
    48   25   26 1    
    49   25   27 1    
    50   25   87 1    
    51   26   88 1    
    52   26   89 1    
    53   26   90 1    
    54   27   28 am   BACKBONE|DICT|INTERRES
    55   27   91 1    
    56   28   29 2    
    57   28   30 1    
    58   30   31 1    
    59   30   32 1    
    60   30   92 1    
    61   31   93 1    
    62   31   94 1    
    63   31   95 1    
    64   32   33 am   BACKBONE|DICT|INTERRES
    65   32   96 1    
    66   33   34 2    
    67   33   35 1    
    68   35   36 1    
    69   35   37 1    
    70   35   97 1    
    71   36   98 1    
    72   36   99 1    
    73   36  100 1    
    74   37   38 am   BACKBONE|DICT|INTERRES
    75   37  101 1    
    76   38   39 2    
    77   38   40 1    
    78   40   41 1    
    79   40   42 1    
    80   40  102 1    
    81   41  103 1    
    82   41  104 1    
    83   41  105 1    
    84   42   43 am   BACKBONE|DICT|INTERRES
    85   42  106 1    
    86   43   44 2    
    87   43   45 1    
    88   45   46 1    
    89   45   49 1    
    90   45  107 1    
    91   46   47 1    
    92   46  108 1    
    93   46  109 1    
    94   47   48 1    
    95   48  110 1    
    96   48  111 1    
    97   49   50 am   BACKBONE|DICT|INTERRES
    98   49  112 1    
    99   50   51 2    
   100   50   52 1    
   101   52   53 1    
   102   52   54 1    
   103   52  113 1    
   104   53  114 1    
   105   53  115 1    
   106   53  116 1    
   107   54   55 am   BACKBONE|DICT|INTERRES
   108   54  117 1    
   109   55   56 2    
   110   55   57 1    
   111   57   58 1    
   112   57   59 1    
   113   57  118 1    
   114   58  119 1    
   115   58  120 1    
   116   58  121 1    
   117   59   60 am   BACKBONE|DICT|INTERRES
   118   59  122 1    
   119   60   61 2    
   120   60   62 1    
   121   62   63 1    
   122   62   64 1    
   123   62  123 1    
   124   63  124 1    
   125   63  125 1    
   126   63  126 1    
   127   64   65 am   BACKBONE|DICT|INTERRES
   128   64  127 1    
   129   65   66 2    
@<TRIPOS>SUBSTRUCTURE
     1 UNK         1 GROUP             0       ****    0 ROOT    
