@<TRIPOS>MOLECULE
3R135
127   129    1
SMALL
USER_CHARGES


@<TRIPOS>ATOM
      1 CA        -78.4709   28.6427  -75.2299 C.3       0 UNK        -0.1998 
      2 C         -79.4171   29.8304  -75.0822 C.2       0 UNK         0.4909 
      3 O         -79.2552   30.8198  -75.7937 O.2       0 UNK        -0.5240 
      4 N         -80.4100   29.7974  -74.1823 N.am      1 UNK        -0.4739 
      5 CA        -80.7952   28.6747  -73.3202 C.3       1 UNK         0.0864 
      6 C6        -81.7878   29.1514  -72.2311 C.3       11 UNK        -0.0881 
      7 S7        -81.8958   28.0137  -70.8088 S.3       11 UNK        -0.2682 
      8 C8        -80.6852   28.7407  -69.6599 C.3       11 UNK         0.0289 
      9 C9        -79.2524   28.4572  -70.0892 C.ar      11 UNK        -0.0687 
     10 C10       -78.7084   27.1842  -69.8966 C.ar      11 UNK        -0.0823 
     11 C11       -77.3823   26.9145  -70.2465 C.ar      11 UNK        -0.0830 
     12 C12       -76.5965   27.9389  -70.7874 C.ar      11 UNK        -0.1021 
     13 C13       -77.1324   29.2117  -71.0023 C.ar      11 UNK        -0.0753 
     14 C14       -78.4629   29.4655  -70.6517 C.ar      11 UNK        -0.0933 
     15 C15       -76.2620   30.3194  -71.5785 C.3       11 UNK         0.0166 
     16 S16       -75.8177   30.0007  -73.3160 S.3       11 UNK        -0.2615 
     17 C17       -75.1485   31.6295  -73.8052 C.3       11 UNK        -0.0865 
     18 CA        -73.6187   31.6526  -74.0634 C.3       10 UNK         0.0862 
     19 C         -72.7705   31.4872  -72.7664 C.2       10 UNK         0.5551 
     20 N         -71.7413   30.6482  -72.7373 N.am      10 UNK        -0.7319 
     21 O         -73.0403   32.1510  -71.7685 O.2       10 UNK        -0.5018 
     22 N         -73.2441   30.7480  -75.1604 N.am      10 UNK        -0.4509 
     23 C         -72.2674   30.9807  -76.0451 C.2       10 UNK         0.4899 
     24 O         -71.6152   32.0255  -76.0878 O.2       10 UNK        -0.4839 
     25 CA        -71.9677   29.8396  -77.0374 C.3       9 UNK         0.0222 
     26 CB        -70.6784   30.0755  -77.8521 C.3       9 UNK        -0.1966 
     27 N         -71.9371   28.5138  -76.4048 N.am      9 UNK        -0.4218 
     28 C         -71.1541   28.1178  -75.3857 C.2       9 UNK         0.5020 
     29 O         -70.3717   28.8671  -74.7990 O.2       9 UNK        -0.5274 
     30 CA        -71.2661   26.6572  -74.9042 C.3       8 UNK         0.0270 
     31 CB        -71.8246   26.6124  -73.4705 C.3       8 UNK        -0.1976 
     32 N         -72.0942   25.8151  -75.7728 N.am      8 UNK        -0.4313 
     33 C         -71.7072   25.3256  -76.9620 C.2       8 UNK         0.5041 
     34 O         -70.5655   25.4516  -77.4065 O.2       8 UNK        -0.5577 
     35 CA        -72.7655   24.6024  -77.8240 C.3       7 UNK         0.0284 
     36 CB        -72.6158   23.0782  -77.6898 C.3       7 UNK        -0.1958 
     37 N         -74.1507   24.9724  -77.5159 N.am      7 UNK        -0.4454 
     38 C         -74.6620   26.2105  -77.5734 C.2       7 UNK         0.5089 
     39 O         -74.0435   27.1836  -78.0047 O.2       7 UNK        -0.5125 
     40 CA        -76.0657   26.4204  -76.9737 C.3       6 UNK         0.0408 
     41 CB        -77.1213   26.4573  -78.0892 C.3       6 UNK        -0.1791 
     42 N         -76.4645   25.4375  -75.9552 N.am      6 UNK        -0.4762 
     43 C         -75.7748   25.1171  -74.8473 C.2       6 UNK         0.5007 
     44 O         -74.6840   25.6123  -74.5685 O.2       6 UNK        -0.5032 
     45 CA        -76.3592   24.0264  -73.9282 C.3       5 UNK         0.0783 
     46 C46       -77.0164   24.6274  -72.6596 C.3       11 UNK        -0.0857 
     47 S47       -75.7755   24.8947  -71.3500 S.3       11 UNK        -0.2512 
     48 C48       -76.8016   25.5283  -69.9851 C.3       11 UNK         0.0225 
     49 N         -77.2725   23.1384  -74.6538 N.am      5 UNK        -0.4615 
     50 C         -76.8869   22.0385  -75.3171 C.2       4 UNK         0.5053 
     51 O         -75.7191   21.6538  -75.3795 O.2       4 UNK        -0.5105 
     52 CA        -77.9803   21.2229  -76.0311 C.3       4 UNK         0.0263 
     53 CB        -78.5264   20.1300  -75.0986 C.3       4 UNK        -0.1981 
     54 N         -79.0901   22.0494  -76.5080 N.am      4 UNK        -0.4224 
     55 C         -79.0120   22.8968  -77.5433 C.2       3 UNK         0.4895 
     56 O         -78.0211   23.0055  -78.2650 O.2       3 UNK        -0.5091 
     57 CA        -80.2323   23.8018  -77.7971 C.3       3 UNK         0.0250 
     58 CB        -81.1662   23.1633  -78.8376 C.3       3 UNK        -0.1996 
     59 N         -81.0015   24.1341  -76.5894 N.am      3 UNK        -0.4254 
     60 C         -80.5103   24.7830  -75.5248 C.2       2 UNK         0.5004 
     61 O         -79.3296   25.1218  -75.4158 O.2       2 UNK        -0.5226 
     62 CA        -81.4748   25.0302  -74.3553 C.3       2 UNK         0.0269 
     63 CB        -81.4029   23.8640  -73.3561 C.3       2 UNK        -0.1926 
     64 N         -81.1386   26.2708  -73.6563 N.am      2 UNK        -0.4687 
     65 C         -81.3622   27.4973  -74.1431 C.2       1 UNK         0.5165 
     66 O         -81.9861   27.7159  -75.1850 O.2       1 UNK        -0.5079 
     67 H67       -78.1458   28.2502  -74.2671 H         1 UNK         0.0900 
     68 H68       -77.5781   28.9523  -75.7709 H         1 UNK         0.0900 
     69 H69       -78.9459   27.8413  -75.7940 H         1 UNK         0.0900 
     70 H70       -81.0262   30.5959  -74.1374 H         1 UNK         0.2959 
     71 H71       -79.8882   28.3285  -72.8236 H         1 UNK         0.1079 
     72 H72       -81.4915   30.1323  -71.8551 H         1 UNK         0.0837 
     73 H73       -82.7880   29.2899  -72.6476 H         1 UNK         0.0837 
     74 H74       -80.8616   29.8133  -69.5630 H         1 UNK         0.0685 
     75 H75       -80.8500   28.3182  -68.6675 H         1 UNK         0.0685 
     76 H76       -79.3204   26.4069  -69.4592 H         1 UNK         0.1434 
     77 H77       -75.5640   27.7483  -71.0472 H         1 UNK         0.1329 
     78 H78       -78.8808   30.4513  -70.8036 H         1 UNK         0.1335 
     79 H79       -76.7806   31.2774  -71.5072 H         1 UNK         0.0680 
     80 H80       -75.3506   30.4142  -70.9852 H         1 UNK         0.0680 
     81 H81       -75.4171   32.3850  -73.0652 H         1 UNK         0.1032 
     82 H82       -75.6677   31.9330  -74.7154 H         1 UNK         0.1032 
     83 H83       -73.3984   32.6695  -74.3939 H         1 UNK         0.0461 
     84 H84       -71.2038   30.5653  -71.8895 H         1 UNK         0.3453 
     85 H85       -71.4617   30.1275  -73.5596 H         1 UNK         0.3453 
     86 H86       -73.7171   29.8561  -75.1725 H         1 UNK         0.2984 
     87 H87       -72.8017   29.8214  -77.7402 H         1 UNK         0.0554 
     88 H88       -70.5086   29.2703  -78.5669 H         1 UNK         0.0847 
     89 H89       -69.8004   30.1433  -77.2089 H         1 UNK         0.0847 
     90 H90       -70.7379   31.0044  -78.4206 H         1 UNK         0.0847 
     91 H91       -72.5706   27.8350  -76.8169 H         1 UNK         0.3141 
     92 H92       -70.2557   26.2427  -74.8869 H         1 UNK         0.0743 
     93 H93       -71.9268   25.5875  -73.1128 H         1 UNK         0.0784 
     94 H94       -71.1627   27.1329  -72.7766 H         1 UNK         0.0784 
     95 H95       -72.8031   27.0906  -73.4020 H         1 UNK         0.0784 
     96 H96       -73.0530   25.6656  -75.4606 H         1 UNK         0.3213 
     97 H97       -72.5769   24.8779  -78.8638 H         1 UNK         0.0855 
     98 H98       -72.8297   22.7397  -76.6748 H         1 UNK         0.0814 
     99 H99       -71.5999   22.7620  -77.9322 H         1 UNK         0.0814 
    100 H100      -73.2874   22.5511  -78.3680 H         1 UNK         0.0814 
    101 H101      -74.7415   24.2446  -77.1396 H         1 UNK         0.3105 
    102 H102      -76.0495   27.3930  -76.4812 H         1 UNK         0.0547 
    103 H103      -76.9026   27.2503  -78.8056 H         1 UNK         0.0837 
    104 H104      -77.1518   25.5193  -78.6438 H         1 UNK         0.0837 
    105 H105      -78.1192   26.6447  -77.6942 H         1 UNK         0.0837 
    106 H106      -77.3923   25.0396  -76.0545 H         1 UNK         0.3020 
    107 H107      -75.5081   23.4206  -73.6066 H         1 UNK         0.1245 
    108 H108      -77.7628   23.9404  -72.2573 H         1 UNK         0.0781 
    109 H109      -77.5465   25.5581  -72.8749 H         1 UNK         0.0781 
    110 H110      -76.1889   25.5767  -69.0842 H         1 UNK         0.0836 
    111 H111      -77.5934   24.8060  -69.7798 H         1 UNK         0.0836 
    112 H112      -78.2345   23.4457  -74.7165 H         1 UNK         0.3022 
    113 H113      -77.5197   20.7365  -76.8939 H         1 UNK         0.0747 
    114 H114      -79.2514   19.4970  -75.6108 H         1 UNK         0.0793 
    115 H115      -77.7232   19.4804  -74.7476 H         1 UNK         0.0793 
    116 H116      -79.0113   20.5531  -74.2177 H         1 UNK         0.0793 
    117 H117      -79.9521   22.0095  -75.9844 H         1 UNK         0.3047 
    118 H118      -79.8544   24.7397  -78.2094 H         1 UNK         0.0822 
    119 H119      -81.6059   22.2347  -78.4714 H         1 UNK         0.0807 
    120 H120      -80.6251   22.9276  -79.7554 H         1 UNK         0.0807 
    121 H121      -81.9791   23.8371  -79.1086 H         1 UNK         0.0807 
    122 H122      -81.9772   23.8716  -76.5931 H         1 UNK         0.2946 
    123 H123      -82.4937   25.1102  -74.7415 H         1 UNK         0.1144 
    124 H124      -80.3991   23.7419  -72.9465 H         1 UNK         0.0793 
    125 H125      -81.6793   22.9214  -73.8304 H         1 UNK         0.0793 
    126 H126      -82.0877   24.0160  -72.5213 H         1 UNK         0.0793 
    127 H127      -80.6267   26.1750  -72.7913 H         1 UNK         0.2896 
@<TRIPOS>BOND
     1    1    2 1    
     2    1   67 1    
     3    1   68 1    
     4    1   69 1    
     5    2    3 2    
     6    2    4 am   BACKBONE|DICT|INTERRES
     7    4    5 1    
     8    4   70 1    
     9    5    6 1    
    10    5   65 1    
    11    5   71 1    
    12    6    7 1    
    13    6   72 1    
    14    6   73 1    
    15    7    8 1    
    16    8    9 1    
    17    8   74 1    
    18    8   75 1    
    19    9   10 ar   
    20    9   14 ar   
    21   10   11 ar   
    22   10   76 1    
    23   11   12 ar   
    24   11   48 1    
    25   12   13 ar   
    26   12   77 1    
    27   13   14 ar   
    28   13   15 1    
    29   14   78 1    
    30   15   16 1    
    31   15   79 1    
    32   15   80 1    
    33   16   17 1    
    34   17   18 1    
    35   17   81 1    
    36   17   82 1    
    37   18   19 1    
    38   18   22 1    
    39   18   83 1    
    40   19   20 am   BACKBONE|DICT|INTERRES
    41   19   21 2    
    42   20   84 1    
    43   20   85 1    
    44   22   23 am   BACKBONE|DICT|INTERRES
    45   22   86 1    
    46   23   24 2    
    47   23   25 1    
    48   25   26 1    
    49   25   27 1    
    50   25   87 1    
    51   26   88 1    
    52   26   89 1    
    53   26   90 1    
    54   27   28 am   BACKBONE|DICT|INTERRES
    55   27   91 1    
    56   28   29 2    
    57   28   30 1    
    58   30   31 1    
    59   30   32 1    
    60   30   92 1    
    61   31   93 1    
    62   31   94 1    
    63   31   95 1    
    64   32   33 am   BACKBONE|DICT|INTERRES
    65   32   96 1    
    66   33   34 2    
    67   33   35 1    
    68   35   36 1    
    69   35   37 1    
    70   35   97 1    
    71   36   98 1    
    72   36   99 1    
    73   36  100 1    
    74   37   38 am   BACKBONE|DICT|INTERRES
    75   37  101 1    
    76   38   39 2    
    77   38   40 1    
    78   40   41 1    
    79   40   42 1    
    80   40  102 1    
    81   41  103 1    
    82   41  104 1    
    83   41  105 1    
    84   42   43 am   BACKBONE|DICT|INTERRES
    85   42  106 1    
    86   43   44 2    
    87   43   45 1    
    88   45   46 1    
    89   45   49 1    
    90   45  107 1    
    91   46   47 1    
    92   46  108 1    
    93   46  109 1    
    94   47   48 1    
    95   48  110 1    
    96   48  111 1    
    97   49   50 am   BACKBONE|DICT|INTERRES
    98   49  112 1    
    99   50   51 2    
   100   50   52 1    
   101   52   53 1    
   102   52   54 1    
   103   52  113 1    
   104   53  114 1    
   105   53  115 1    
   106   53  116 1    
   107   54   55 am   BACKBONE|DICT|INTERRES
   108   54  117 1    
   109   55   56 2    
   110   55   57 1    
   111   57   58 1    
   112   57   59 1    
   113   57  118 1    
   114   58  119 1    
   115   58  120 1    
   116   58  121 1    
   117   59   60 am   BACKBONE|DICT|INTERRES
   118   59  122 1    
   119   60   61 2    
   120   60   62 1    
   121   62   63 1    
   122   62   64 1    
   123   62  123 1    
   124   63  124 1    
   125   63  125 1    
   126   63  126 1    
   127   64   65 am   BACKBONE|DICT|INTERRES
   128   64  127 1    
   129   65   66 2    
@<TRIPOS>SUBSTRUCTURE
     1 UNK         1 GROUP             0       ****    0 ROOT    
