@<TRIPOS>MOLECULE
3R135
127   129    1
SMALL
USER_CHARGES


@<TRIPOS>ATOM
      1 CA        -84.5009   25.2481  -74.9373 C.3       0 UNK        -0.1998 
      2 C         -83.3086   26.1281  -75.2796 C.2       0 UNK         0.4909 
      3 O         -83.3440   26.8507  -76.2765 O.2       0 UNK        -0.5240 
      4 N         -82.2433   26.0658  -74.4704 N.am      1 UNK        -0.4739 
      5 CA        -81.0049   26.8430  -74.6166 C.3       1 UNK         0.0864 
      6 C6        -80.2579   26.9727  -73.2655 C.3       11 UNK        -0.0881 
      7 S7        -81.2172   27.9355  -72.0493 S.3       11 UNK        -0.2682 
      8 C8        -80.2919   29.5137  -72.0255 C.3       11 UNK         0.0289 
      9 C9        -78.8739   29.4456  -71.4500 C.ar      11 UNK        -0.0687 
     10 C10       -78.4386   28.3844  -70.6454 C.ar      11 UNK        -0.0823 
     11 C11       -77.1401   28.3610  -70.1317 C.ar      11 UNK        -0.0830 
     12 C12       -76.2782   29.4268  -70.3907 C.ar      11 UNK        -0.1021 
     13 C13       -76.6926   30.4953  -71.1893 C.ar      11 UNK        -0.0753 
     14 C14       -77.9877   30.4954  -71.7186 C.ar      11 UNK        -0.0933 
     15 C15       -75.7485   31.6591  -71.4584 C.3       11 UNK         0.0166 
     16 S16       -74.5851   31.2968  -72.8106 S.3       11 UNK        -0.2615 
     17 C17       -73.4343   30.1305  -72.0001 C.3       11 UNK        -0.0865 
     18 CA        -72.0452   30.0660  -72.6849 C.3       10 UNK         0.0862 
     19 C         -71.0635   29.1381  -71.9089 C.2       10 UNK         0.5551 
     20 N         -70.3868   28.1875  -72.5446 N.am      10 UNK        -0.7319 
     21 O         -70.9019   29.2924  -70.7008 O.2       10 UNK        -0.5018 
     22 N         -72.1616   29.7320  -74.1109 N.am      10 UNK        -0.4509 
     23 C         -71.3582   30.2069  -75.0695 C.2       10 UNK         0.4899 
     24 O         -70.4573   31.0231  -74.8661 O.2       10 UNK        -0.4839 
     25 CA        -71.6046   29.6759  -76.4938 C.3       9 UNK         0.0222 
     26 CB        -70.4195   29.9389  -77.4475 C.3       9 UNK        -0.1966 
     27 N         -71.9905   28.2608  -76.5276 N.am      9 UNK        -0.4218 
     28 C         -71.2867   27.2060  -76.0824 C.2       9 UNK         0.5020 
     29 O         -70.1964   27.3090  -75.5179 O.2       9 UNK        -0.5274 
     30 CA        -71.8973   25.7992  -76.2694 C.3       8 UNK         0.0270 
     31 CB        -71.8065   24.9752  -74.9723 C.3       8 UNK        -0.1976 
     32 N         -73.2913   25.8368  -76.7202 N.am      8 UNK        -0.4313 
     33 C         -73.6894   26.0158  -77.9871 C.2       8 UNK         0.5041 
     34 O         -72.9201   26.0410  -78.9477 O.2       8 UNK        -0.5577 
     35 CA        -75.1875   26.2800  -78.2152 C.3       7 UNK         0.0284 
     36 CB        -75.9011   25.0114  -78.6999 C.3       7 UNK        -0.1958 
     37 N         -75.8563   26.8215  -77.0241 N.am      7 UNK        -0.4454 
     38 C         -75.6855   28.0793  -76.5856 C.2       7 UNK         0.5089 
     39 O         -75.0117   28.9180  -77.1836 O.2       7 UNK        -0.5125 
     40 CA        -76.3046   28.4498  -75.2264 C.3       6 UNK         0.0408 
     41 CB        -77.7102   29.0379  -75.4044 C.3       6 UNK        -0.1791 
     42 N         -76.3093   27.3188  -74.2873 N.am      6 UNK        -0.4762 
     43 C         -75.1840   26.8808  -73.7005 C.2       6 UNK         0.5007 
     44 O         -74.0876   27.4113  -73.8892 O.2       6 UNK        -0.5032 
     45 CA        -75.2331   25.6189  -72.8138 C.3       5 UNK         0.0783 
     46 C46       -75.0752   25.9274  -71.2911 C.3       11 UNK        -0.0857 
     47 S47       -76.5707   25.6564  -70.2654 S.3       11 UNK        -0.2512 
     48 C48       -76.6782   27.1862  -69.2860 C.3       11 UNK         0.0225 
     49 N         -76.3182   24.6759  -73.0977 N.am      5 UNK        -0.4615 
     50 C         -76.5451   24.0194  -74.2398 C.2       4 UNK         0.5053 
     51 O         -75.9655   24.2725  -75.2965 O.2       4 UNK        -0.5105 
     52 CA        -77.5443   22.8507  -74.1705 C.3       4 UNK         0.0263 
     53 CB        -78.3133   22.7431  -72.8327 C.3       4 UNK        -0.1981 
     54 N         -78.4985   22.9136  -75.2741 N.am      4 UNK        -0.4224 
     55 C         -79.0536   21.8412  -75.8604 C.2       3 UNK         0.4895 
     56 O         -78.7289   20.6825  -75.5948 O.2       3 UNK        -0.5091 
     57 CA        -80.1902   22.0641  -76.8794 C.3       3 UNK         0.0250 
     58 CB        -81.5114   21.4807  -76.3479 C.3       3 UNK        -0.1996 
     59 N         -80.4044   23.4745  -77.1959 N.am      3 UNK        -0.4254 
     60 C         -79.7201   24.1664  -78.1140 C.2       2 UNK         0.5004 
     61 O         -78.9255   23.6516  -78.8992 O.2       2 UNK        -0.5226 
     62 CA        -79.9480   25.6903  -78.1535 C.3       2 UNK         0.0269 
     63 CB        -80.7571   26.0844  -79.3993 C.3       2 UNK        -0.1926 
     64 N         -80.6166   26.2270  -76.9612 N.am      2 UNK        -0.4687 
     65 C         -80.1065   26.2510  -75.7231 C.2       1 UNK         0.5165 
     66 O         -78.9912   25.8033  -75.4474 O.2       1 UNK        -0.5079 
     67 H67       -85.3876   25.8625  -74.7838 H         1 UNK         0.0900 
     68 H68       -84.7029   24.5556  -75.7540 H         1 UNK         0.0900 
     69 H69       -84.3313   24.6654  -74.0319 H         1 UNK         0.0900 
     70 H70       -82.2745   25.4564  -73.6652 H         1 UNK         0.2959 
     71 H71       -81.2658   27.8518  -74.9456 H         1 UNK         0.1079 
     72 H72       -80.0510   25.9880  -72.8425 H         1 UNK         0.0837 
     73 H73       -79.2849   27.4460  -73.3992 H         1 UNK         0.0837 
     74 H74       -80.2578   29.9066  -73.0429 H         1 UNK         0.0685 
     75 H75       -80.8631   30.2327  -71.4371 H         1 UNK         0.0685 
     76 H76       -79.0989   27.5610  -70.4146 H         1 UNK         0.1434 
     77 H77       -75.2829   29.4235  -69.9702 H         1 UNK         0.1329 
     78 H78       -78.3112   31.3239  -72.3340 H         1 UNK         0.1335 
     79 H79       -75.1974   31.9156  -70.5524 H         1 UNK         0.0680 
     80 H80       -76.3207   32.5492  -71.7240 H         1 UNK         0.0680 
     81 H81       -73.3164   30.4339  -70.9583 H         1 UNK         0.1032 
     82 H82       -73.8952   29.1436  -71.9809 H         1 UNK         0.1032 
     83 H83       -71.6155   31.0662  -72.6035 H         1 UNK         0.0461 
     84 H84       -69.7530   27.6044  -72.0224 H         1 UNK         0.3453 
     85 H85       -70.4777   28.0603  -73.5450 H         1 UNK         0.3453 
     86 H86       -72.8552   29.0272  -74.3365 H         1 UNK         0.2984 
     87 H87       -72.4627   30.2306  -76.8758 H         1 UNK         0.0554 
     88 H88       -70.2126   31.0066  -77.5308 H         1 UNK         0.0847 
     89 H89       -70.6297   29.5727  -78.4523 H         1 UNK         0.0847 
     90 H90       -69.5053   29.4572  -77.0990 H         1 UNK         0.0847 
     91 H91       -72.9006   28.0820  -76.9321 H         1 UNK         0.3141 
     92 H92       -71.3009   25.2906  -77.0297 H         1 UNK         0.0743 
     93 H93       -70.7663   24.7650  -74.7203 H         1 UNK         0.0784 
     94 H94       -72.2370   25.5070  -74.1246 H         1 UNK         0.0784 
     95 H95       -72.3151   24.0157  -75.0680 H         1 UNK         0.0784 
     96 H96       -74.0015   25.8170  -76.0011 H         1 UNK         0.3213 
     97 H97       -75.2587   27.0221  -79.0138 H         1 UNK         0.0855 
     98 H98       -75.9969   24.2622  -77.9142 H         1 UNK         0.0814 
     99 H99       -75.3617   24.5481  -79.5273 H         1 UNK         0.0814 
    100 H100      -76.8965   25.2493  -79.0686 H         1 UNK         0.0814 
    101 H101      -76.3740   26.1662  -76.4489 H         1 UNK         0.3105 
    102 H102      -75.6872   29.2392  -74.7920 H         1 UNK         0.0547 
    103 H103      -78.1779   29.2565  -74.4459 H         1 UNK         0.0837 
    104 H104      -77.6606   29.9772  -75.9566 H         1 UNK         0.0837 
    105 H105      -78.3604   28.3758  -75.9705 H         1 UNK         0.0837 
    106 H106      -77.1724   26.8076  -74.1581 H         1 UNK         0.3020 
    107 H107      -74.3298   25.0769  -73.1007 H         1 UNK         0.1245 
    108 H108      -74.6932   26.9355  -71.1206 H         1 UNK         0.0781 
    109 H109      -74.3064   25.2712  -70.8801 H         1 UNK         0.0781 
    110 H110      -75.7137   27.3872  -68.8169 H         1 UNK         0.0836 
    111 H111      -77.3878   27.0340  -68.4716 H         1 UNK         0.0836 
    112 H112      -76.8690   24.4263  -72.2879 H         1 UNK         0.3022 
    113 H113      -76.9350   21.9513  -74.2807 H         1 UNK         0.0747 
    114 H114      -78.9815   21.8817  -72.8327 H         1 UNK         0.0793 
    115 H115      -77.6364   22.6085  -71.9880 H         1 UNK         0.0793 
    116 H116      -78.9216   23.6284  -72.6427 H         1 UNK         0.0793 
    117 H117      -78.7538   23.8509  -75.5707 H         1 UNK         0.3047 
    118 H118      -79.9211   21.5259  -77.7909 H         1 UNK         0.0822 
    119 H119      -81.4137   20.4140  -76.1407 H         1 UNK         0.0807 
    120 H120      -82.3161   21.5935  -77.0747 H         1 UNK         0.0807 
    121 H121      -81.8239   21.9647  -75.4216 H         1 UNK         0.0807 
    122 H122      -81.0512   23.9803  -76.6091 H         1 UNK         0.2946 
    123 H123      -78.9635   26.1581  -78.2190 H         1 UNK         0.1144 
    124 H124      -80.8489   27.1671  -79.4867 H         1 UNK         0.0793 
    125 H125      -81.7627   25.6624  -79.3763 H         1 UNK         0.0793 
    126 H126      -80.2735   25.7277  -80.3099 H         1 UNK         0.0793 
    127 H127      -81.5656   26.5727  -77.0781 H         1 UNK         0.2896 
@<TRIPOS>BOND
     1    1    2 1    
     2    1   67 1    
     3    1   68 1    
     4    1   69 1    
     5    2    3 2    
     6    2    4 am   BACKBONE|DICT|INTERRES
     7    4    5 1    
     8    4   70 1    
     9    5    6 1    
    10    5   65 1    
    11    5   71 1    
    12    6    7 1    
    13    6   72 1    
    14    6   73 1    
    15    7    8 1    
    16    8    9 1    
    17    8   74 1    
    18    8   75 1    
    19    9   10 ar   
    20    9   14 ar   
    21   10   11 ar   
    22   10   76 1    
    23   11   12 ar   
    24   11   48 1    
    25   12   13 ar   
    26   12   77 1    
    27   13   14 ar   
    28   13   15 1    
    29   14   78 1    
    30   15   16 1    
    31   15   79 1    
    32   15   80 1    
    33   16   17 1    
    34   17   18 1    
    35   17   81 1    
    36   17   82 1    
    37   18   19 1    
    38   18   22 1    
    39   18   83 1    
    40   19   20 am   BACKBONE|DICT|INTERRES
    41   19   21 2    
    42   20   84 1    
    43   20   85 1    
    44   22   23 am   BACKBONE|DICT|INTERRES
    45   22   86 1    
    46   23   24 2    
    47   23   25 1    
    48   25   26 1    
    49   25   27 1    
    50   25   87 1    
    51   26   88 1    
    52   26   89 1    
    53   26   90 1    
    54   27   28 am   BACKBONE|DICT|INTERRES
    55   27   91 1    
    56   28   29 2    
    57   28   30 1    
    58   30   31 1    
    59   30   32 1    
    60   30   92 1    
    61   31   93 1    
    62   31   94 1    
    63   31   95 1    
    64   32   33 am   BACKBONE|DICT|INTERRES
    65   32   96 1    
    66   33   34 2    
    67   33   35 1    
    68   35   36 1    
    69   35   37 1    
    70   35   97 1    
    71   36   98 1    
    72   36   99 1    
    73   36  100 1    
    74   37   38 am   BACKBONE|DICT|INTERRES
    75   37  101 1    
    76   38   39 2    
    77   38   40 1    
    78   40   41 1    
    79   40   42 1    
    80   40  102 1    
    81   41  103 1    
    82   41  104 1    
    83   41  105 1    
    84   42   43 am   BACKBONE|DICT|INTERRES
    85   42  106 1    
    86   43   44 2    
    87   43   45 1    
    88   45   46 1    
    89   45   49 1    
    90   45  107 1    
    91   46   47 1    
    92   46  108 1    
    93   46  109 1    
    94   47   48 1    
    95   48  110 1    
    96   48  111 1    
    97   49   50 am   BACKBONE|DICT|INTERRES
    98   49  112 1    
    99   50   51 2    
   100   50   52 1    
   101   52   53 1    
   102   52   54 1    
   103   52  113 1    
   104   53  114 1    
   105   53  115 1    
   106   53  116 1    
   107   54   55 am   BACKBONE|DICT|INTERRES
   108   54  117 1    
   109   55   56 2    
   110   55   57 1    
   111   57   58 1    
   112   57   59 1    
   113   57  118 1    
   114   58  119 1    
   115   58  120 1    
   116   58  121 1    
   117   59   60 am   BACKBONE|DICT|INTERRES
   118   59  122 1    
   119   60   61 2    
   120   60   62 1    
   121   62   63 1    
   122   62   64 1    
   123   62  123 1    
   124   63  124 1    
   125   63  125 1    
   126   63  126 1    
   127   64   65 am   BACKBONE|DICT|INTERRES
   128   64  127 1    
   129   65   66 2    
@<TRIPOS>SUBSTRUCTURE
     1 UNK         1 GROUP             0       ****    0 ROOT    
