@<TRIPOS>MOLECULE
3R135
127   129    1
SMALL
USER_CHARGES


@<TRIPOS>ATOM
      1 CA        -79.4831   28.6235  -70.1019 C.3       0 UNK        -0.1998 
      2 C         -80.6675   28.3685  -71.0194 C.2       0 UNK         0.4909 
      3 O         -81.7575   28.0526  -70.5416 O.2       0 UNK        -0.5240 
      4 N         -80.4655   28.5135  -72.3359 N.am      1 UNK        -0.4739 
      5 CA        -81.5056   28.3400  -73.3583 C.3       1 UNK         0.0864 
      6 C6        -81.1374   29.0678  -74.6785 C.3       11 UNK        -0.0881 
      7 S7        -79.8120   28.2751  -75.6607 S.3       11 UNK        -0.2682 
      8 C8        -78.4271   29.4389  -75.4679 C.3       11 UNK         0.0289 
      9 C9        -77.7442   29.3609  -74.1073 C.ar      11 UNK        -0.0687 
     10 C10       -77.3722   28.1320  -73.5444 C.ar      11 UNK        -0.0823 
     11 C11       -76.6853   28.0841  -72.3252 C.ar      11 UNK        -0.0830 
     12 C12       -76.3567   29.2810  -71.6828 C.ar      11 UNK        -0.1021 
     13 C13       -76.7097   30.5125  -72.2406 C.ar      11 UNK        -0.0753 
     14 C14       -77.4220   30.5450  -73.4403 C.ar      11 UNK        -0.0933 
     15 C15       -76.2993   31.8064  -71.5556 C.3       11 UNK         0.0166 
     16 S16       -74.4892   31.9981  -71.5255 S.3       11 UNK        -0.2615 
     17 C17       -74.0905   32.4634  -73.2519 C.3       11 UNK        -0.0865 
     18 CA        -74.0075   31.2966  -74.2887 C.3       10 UNK         0.0862 
     19 C         -73.4739   31.7922  -75.6665 C.2       10 UNK         0.5551 
     20 N         -72.5655   31.0893  -76.3312 N.am      10 UNK        -0.7319 
     21 O         -73.9131   32.8296  -76.1570 O.2       10 UNK        -0.5018 
     22 N         -73.3852   30.0664  -73.7701 N.am      10 UNK        -0.4509 
     23 C         -72.1423   29.9472  -73.2867 C.2       10 UNK         0.4899 
     24 O         -71.3100   30.8541  -73.2755 O.2       10 UNK        -0.4839 
     25 CA        -71.7611   28.5706  -72.7361 C.3       9 UNK         0.0222 
     26 CB        -72.5817   28.2137  -71.4847 C.3       9 UNK        -0.1966 
     27 N         -71.9450   27.5543  -73.7717 N.am      9 UNK        -0.4218 
     28 C         -71.0231   26.6497  -74.1213 C.2       9 UNK         0.5020 
     29 O         -69.9476   26.5020  -73.5377 O.2       9 UNK        -0.5274 
     30 CA        -71.3361   25.7507  -75.3321 C.3       8 UNK         0.0270 
     31 CB        -71.8266   24.3755  -74.8514 C.3       8 UNK        -0.1976 
     32 N         -72.2897   26.3138  -76.3014 N.am      8 UNK        -0.4313 
     33 C         -72.0808   27.4353  -77.0125 C.2       8 UNK         0.5041 
     34 O         -71.0939   28.1558  -76.8587 O.2       8 UNK        -0.5577 
     35 CA        -73.1099   27.8390  -78.0876 C.3       7 UNK         0.0284 
     36 CB        -72.5082   27.6749  -79.4935 C.3       7 UNK        -0.1958 
     37 N         -74.3756   27.1088  -78.0315 N.am      7 UNK        -0.4454 
     38 C         -75.3204   27.2744  -77.0982 C.2       7 UNK         0.5089 
     39 O         -75.2119   28.0592  -76.1556 O.2       7 UNK        -0.5125 
     40 CA        -76.5811   26.3872  -77.2161 C.3       6 UNK         0.0408 
     41 CB        -76.7377   25.6822  -78.5817 C.3       6 UNK        -0.1791 
     42 N         -76.6622   25.3995  -76.1374 N.am      6 UNK        -0.4762 
     43 C         -75.6893   24.5619  -75.7463 C.2       6 UNK         0.5007 
     44 O         -74.5986   24.4604  -76.3104 O.2       6 UNK        -0.5032 
     45 CA        -76.0008   23.6727  -74.5327 C.3       5 UNK         0.0783 
     46 C46       -76.4292   24.4704  -73.2748 C.3       11 UNK        -0.0857 
     47 S47       -75.2286   25.7213  -72.7085 S.3       11 UNK        -0.2512 
     48 C48       -76.3140   26.7564  -71.6716 C.3       11 UNK         0.0225 
     49 N         -77.0396   22.7257  -74.9260 N.am      5 UNK        -0.4615 
     50 C         -76.8175   21.5198  -75.4643 C.2       4 UNK         0.5053 
     51 O         -75.6973   21.0277  -75.6009 O.2       4 UNK        -0.5105 
     52 CA        -78.0487   20.7119  -75.9189 C.3       4 UNK         0.0263 
     53 CB        -78.3958   19.6348  -74.8780 C.3       4 UNK        -0.1981 
     54 N         -79.2308   21.5446  -76.1555 N.am      4 UNK        -0.4224 
     55 C         -79.3866   22.3749  -77.1968 C.2       3 UNK         0.4895 
     56 O         -78.5919   22.4562  -78.1332 O.2       3 UNK        -0.5091 
     57 CA        -80.6268   23.2883  -77.1781 C.3       3 UNK         0.0250 
     58 CB        -81.7615   22.6717  -78.0118 C.3       3 UNK        -0.1996 
     59 N         -81.1245   23.5956  -75.8299 N.am      3 UNK        -0.4254 
     60 C         -80.4402   24.2880  -74.9096 C.2       2 UNK         0.5004 
     61 O         -79.2917   24.7043  -75.0805 O.2       2 UNK        -0.5226 
     62 CA        -81.1188   24.5112  -73.5520 C.3       2 UNK         0.0269 
     63 CB        -80.4326   23.6717  -72.4615 C.3       2 UNK        -0.1926 
     64 N         -81.0229   25.9255  -73.2024 N.am      2 UNK        -0.4687 
     65 C         -81.8943   26.8629  -73.6000 C.2       1 UNK         0.5165 
     66 O         -82.9614   26.6039  -74.1599 O.2       1 UNK        -0.5079 
     67 H67       -78.8928   29.4681  -70.4546 H         1 UNK         0.0900 
     68 H68       -79.8227   28.8548  -69.0926 H         1 UNK         0.0900 
     69 H69       -78.8428   27.7437  -70.0525 H         1 UNK         0.0900 
     70 H70       -79.5484   28.7670  -72.6814 H         1 UNK         0.2959 
     71 H71       -82.4087   28.8220  -72.9762 H         1 UNK         0.1079 
     72 H72       -80.8700   30.1044  -74.4678 H         1 UNK         0.0837 
     73 H73       -82.0205   29.1260  -75.3174 H         1 UNK         0.0837 
     74 H74       -78.7871   30.4488  -75.6698 H         1 UNK         0.0685 
     75 H75       -77.6828   29.2299  -76.2353 H         1 UNK         0.0685 
     76 H76       -77.6073   27.2154  -74.0658 H         1 UNK         0.1434 
     77 H77       -75.8144   29.2625  -70.7472 H         1 UNK         0.1329 
     78 H78       -77.6876   31.4979  -73.8775 H         1 UNK         0.1335 
     79 H79       -76.7518   32.6745  -72.0372 H         1 UNK         0.0680 
     80 H80       -76.6691   31.7949  -70.5294 H         1 UNK         0.0680 
     81 H81       -73.1327   32.9858  -73.2172 H         1 UNK         0.1032 
     82 H82       -74.8155   33.2079  -73.5855 H         1 UNK         0.1032 
     83 H83       -75.0280   30.9940  -74.5117 H         1 UNK         0.0461 
     84 H84       -72.2359   31.4299  -77.2198 H         1 UNK         0.3453 
     85 H85       -72.1757   30.2467  -75.9384 H         1 UNK         0.3453 
     86 H86       -74.0080   29.2726  -73.7306 H         1 UNK         0.2984 
     87 H87       -70.7107   28.6268  -72.4428 H         1 UNK         0.0554 
     88 H88       -72.2563   27.2655  -71.0567 H         1 UNK         0.0847 
     89 H89       -73.6447   28.1303  -71.7057 H         1 UNK         0.0847 
     90 H90       -72.4689   28.9767  -70.7134 H         1 UNK         0.0847 
     91 H91       -72.7855   27.6082  -74.3299 H         1 UNK         0.3141 
     92 H92       -70.3952   25.6013  -75.8657 H         1 UNK         0.0743 
     93 H93       -72.7584   24.4558  -74.2908 H         1 UNK         0.0784 
     94 H94       -71.9912   23.6949  -75.6869 H         1 UNK         0.0784 
     95 H95       -71.0930   23.9071  -74.1937 H         1 UNK         0.0784 
     96 H96       -73.1339   25.7717  -76.4705 H         1 UNK         0.3213 
     97 H97       -73.3308   28.8975  -77.9369 H         1 UNK         0.0855 
     98 H98       -73.1903   28.0362  -80.2634 H         1 UNK         0.0814 
     99 H99       -72.2723   26.6328  -79.7128 H         1 UNK         0.0814 
    100 H100      -71.5832   28.2451  -79.5923 H         1 UNK         0.0814 
    101 H101      -74.5280   26.4088  -78.7429 H         1 UNK         0.3105 
    102 H102      -77.4374   27.0488  -77.0932 H         1 UNK         0.0547 
    103 H103      -77.6970   25.1677  -78.6412 H         1 UNK         0.0837 
    104 H104      -75.9613   24.9363  -78.7559 H         1 UNK         0.0837 
    105 H105      -76.7112   26.3978  -79.4045 H         1 UNK         0.0837 
    106 H106      -77.5535   25.3573  -75.6493 H         1 UNK         0.3020 
    107 H107      -75.0859   23.1292  -74.2845 H         1 UNK         0.1245 
    108 H108      -76.5963   23.7775  -72.4487 H         1 UNK         0.0781 
    109 H109      -77.3854   24.9637  -73.4415 H         1 UNK         0.0781 
    110 H110      -75.7981   26.9305  -70.7261 H         1 UNK         0.0836 
    111 H111      -77.2252   26.2161  -71.4122 H         1 UNK         0.0836 
    112 H112      -77.9844   23.0899  -74.9211 H         1 UNK         0.3022 
    113 H113      -77.7866   20.2133  -76.8547 H         1 UNK         0.0747 
    114 H114      -79.2229   19.0091  -75.2142 H         1 UNK         0.0793 
    115 H115      -77.5450   18.9752  -74.7009 H         1 UNK         0.0793 
    116 H116      -78.6728   20.0733  -73.9184 H         1 UNK         0.0793 
    117 H117      -79.9498   21.5282  -75.4471 H         1 UNK         0.3047 
    118 H118      -80.3349   24.2328  -77.6431 H         1 UNK         0.0822 
    119 H119      -82.6113   23.3503  -78.0899 H         1 UNK         0.0807 
    120 H120      -82.1168   21.7344  -77.5818 H         1 UNK         0.0807 
    121 H121      -81.4271   22.4577  -79.0281 H         1 UNK         0.0807 
    122 H122      -82.0605   23.2828  -75.6132 H         1 UNK         0.2946 
    123 H123      -82.1687   24.2147  -73.6111 H         1 UNK         0.1144 
    124 H124      -79.3781   23.9266  -72.3521 H         1 UNK         0.0793 
    125 H125      -80.4890   22.6073  -72.6929 H         1 UNK         0.0793 
    126 H126      -80.9117   23.8173  -71.4931 H         1 UNK         0.0793 
    127 H127      -80.1528   26.2358  -72.7970 H         1 UNK         0.2896 
@<TRIPOS>BOND
     1    1    2 1    
     2    1   67 1    
     3    1   68 1    
     4    1   69 1    
     5    2    3 2    
     6    2    4 am   BACKBONE|DICT|INTERRES
     7    4    5 1    
     8    4   70 1    
     9    5    6 1    
    10    5   65 1    
    11    5   71 1    
    12    6    7 1    
    13    6   72 1    
    14    6   73 1    
    15    7    8 1    
    16    8    9 1    
    17    8   74 1    
    18    8   75 1    
    19    9   10 ar   
    20    9   14 ar   
    21   10   11 ar   
    22   10   76 1    
    23   11   12 ar   
    24   11   48 1    
    25   12   13 ar   
    26   12   77 1    
    27   13   14 ar   
    28   13   15 1    
    29   14   78 1    
    30   15   16 1    
    31   15   79 1    
    32   15   80 1    
    33   16   17 1    
    34   17   18 1    
    35   17   81 1    
    36   17   82 1    
    37   18   19 1    
    38   18   22 1    
    39   18   83 1    
    40   19   20 am   BACKBONE|DICT|INTERRES
    41   19   21 2    
    42   20   84 1    
    43   20   85 1    
    44   22   23 am   BACKBONE|DICT|INTERRES
    45   22   86 1    
    46   23   24 2    
    47   23   25 1    
    48   25   26 1    
    49   25   27 1    
    50   25   87 1    
    51   26   88 1    
    52   26   89 1    
    53   26   90 1    
    54   27   28 am   BACKBONE|DICT|INTERRES
    55   27   91 1    
    56   28   29 2    
    57   28   30 1    
    58   30   31 1    
    59   30   32 1    
    60   30   92 1    
    61   31   93 1    
    62   31   94 1    
    63   31   95 1    
    64   32   33 am   BACKBONE|DICT|INTERRES
    65   32   96 1    
    66   33   34 2    
    67   33   35 1    
    68   35   36 1    
    69   35   37 1    
    70   35   97 1    
    71   36   98 1    
    72   36   99 1    
    73   36  100 1    
    74   37   38 am   BACKBONE|DICT|INTERRES
    75   37  101 1    
    76   38   39 2    
    77   38   40 1    
    78   40   41 1    
    79   40   42 1    
    80   40  102 1    
    81   41  103 1    
    82   41  104 1    
    83   41  105 1    
    84   42   43 am   BACKBONE|DICT|INTERRES
    85   42  106 1    
    86   43   44 2    
    87   43   45 1    
    88   45   46 1    
    89   45   49 1    
    90   45  107 1    
    91   46   47 1    
    92   46  108 1    
    93   46  109 1    
    94   47   48 1    
    95   48  110 1    
    96   48  111 1    
    97   49   50 am   BACKBONE|DICT|INTERRES
    98   49  112 1    
    99   50   51 2    
   100   50   52 1    
   101   52   53 1    
   102   52   54 1    
   103   52  113 1    
   104   53  114 1    
   105   53  115 1    
   106   53  116 1    
   107   54   55 am   BACKBONE|DICT|INTERRES
   108   54  117 1    
   109   55   56 2    
   110   55   57 1    
   111   57   58 1    
   112   57   59 1    
   113   57  118 1    
   114   58  119 1    
   115   58  120 1    
   116   58  121 1    
   117   59   60 am   BACKBONE|DICT|INTERRES
   118   59  122 1    
   119   60   61 2    
   120   60   62 1    
   121   62   63 1    
   122   62   64 1    
   123   62  123 1    
   124   63  124 1    
   125   63  125 1    
   126   63  126 1    
   127   64   65 am   BACKBONE|DICT|INTERRES
   128   64  127 1    
   129   65   66 2    
@<TRIPOS>SUBSTRUCTURE
     1 UNK         1 GROUP             0       ****    0 ROOT    
