@<TRIPOS>MOLECULE
3R135
127   129    1
SMALL
USER_CHARGES


@<TRIPOS>ATOM
      1 CA        -83.4095   30.5601  -72.3199 C.3       0 UNK        -0.1998 
      2 C         -83.7087   29.0988  -72.6450 C.2       0 UNK         0.4909 
      3 O         -84.8776   28.7330  -72.7521 O.2       0 UNK        -0.5240 
      4 N         -82.7045   28.2243  -72.8067 N.am      1 UNK        -0.4739 
      5 CA        -81.2608   28.4998  -72.7432 C.3       1 UNK         0.0864 
      6 C6        -80.4339   27.1955  -72.6245 C.3       11 UNK        -0.0881 
      7 S7        -80.8498   26.2084  -71.1484 S.3       11 UNK        -0.2682 
      8 C8        -79.9176   27.0666  -69.8386 C.3       11 UNK         0.0289 
      9 C9        -78.4138   27.0382  -70.0731 C.ar      11 UNK        -0.0687 
     10 C10       -77.6931   25.8572  -69.8717 C.ar      11 UNK        -0.0823 
     11 C11       -76.3095   25.8274  -70.0714 C.ar      11 UNK        -0.0830 
     12 C12       -75.6462   26.9933  -70.4627 C.ar      11 UNK        -0.1021 
     13 C13       -76.3562   28.1795  -70.6691 C.ar      11 UNK        -0.0753 
     14 C14       -77.7402   28.1968  -70.4747 C.ar      11 UNK        -0.0933 
     15 C15       -75.6167   29.4437  -71.0786 C.3       11 UNK         0.0166 
     16 S16       -74.9461   29.3163  -72.7626 S.3       11 UNK        -0.2615 
     17 C17       -76.4511   29.5235  -73.7784 C.3       11 UNK        -0.0865 
     18 CA        -76.1365   29.8618  -75.2595 C.3       10 UNK         0.0862 
     19 C         -75.5468   31.2978  -75.4120 C.2       10 UNK         0.5551 
     20 N         -74.2857   31.4663  -75.7969 N.am      10 UNK        -0.7319 
     21 O         -76.2524   32.2766  -75.1810 O.2       10 UNK        -0.5018 
     22 N         -75.3473   28.7891  -75.8801 N.am      10 UNK        -0.4509 
     23 C         -75.0874   28.6600  -77.1865 C.2       10 UNK         0.4899 
     24 O         -75.5707   29.3821  -78.0585 O.2       10 UNK        -0.4839 
     25 CA        -74.1259   27.5217  -77.5772 C.3       9 UNK         0.0222 
     26 CB        -73.4357   27.7594  -78.9361 C.3       9 UNK        -0.1966 
     27 N         -73.1346   27.2136  -76.5387 N.am      9 UNK        -0.4218 
     28 C         -72.1968   28.0240  -76.0210 C.2       9 UNK         0.5020 
     29 O         -72.0592   29.2070  -76.3362 O.2       9 UNK        -0.5274 
     30 CA        -71.2612   27.4145  -74.9621 C.3       8 UNK         0.0270 
     31 CB        -71.8197   27.6529  -73.5504 C.3       8 UNK        -0.1976 
     32 N         -71.0848   25.9747  -75.1663 N.am      8 UNK        -0.4313 
     33 C         -70.0376   25.4053  -75.7782 C.2       8 UNK         0.5041 
     34 O         -69.0398   26.0226  -76.1534 O.2       8 UNK        -0.5577 
     35 CA        -70.1199   23.8862  -76.0280 C.3       7 UNK         0.0284 
     36 CB        -69.5536   23.1111  -74.8272 C.3       7 UNK        -0.1958 
     37 N         -71.4832   23.4237  -76.3073 N.am      7 UNK        -0.4454 
     38 C         -72.1924   23.7606  -77.3939 C.2       7 UNK         0.5089 
     39 O         -71.7287   24.4000  -78.3376 O.2       7 UNK        -0.5125 
     40 CA        -73.6770   23.3469  -77.4353 C.3       6 UNK         0.0408 
     41 CB        -73.8627   22.1253  -78.3491 C.3       6 UNK        -0.1791 
     42 N         -74.3151   23.0729  -76.1391 N.am      6 UNK        -0.4762 
     43 C         -74.3741   23.8931  -75.0795 C.2       6 UNK         0.5007 
     44 O         -73.7878   24.9747  -75.0201 O.2       6 UNK        -0.5032 
     45 CA        -75.2715   23.4389  -73.9167 C.3       5 UNK         0.0783 
     46 C46       -74.8871   24.0993  -72.5703 C.3       11 UNK        -0.0857 
     47 S47       -75.8024   23.3381  -71.1874 S.3       11 UNK        -0.2512 
     48 C48       -75.5302   24.5399  -69.8488 C.3       11 UNK         0.0225 
     49 N         -76.6587   23.7235  -74.2785 N.am      5 UNK        -0.4615 
     50 C         -77.4500   22.9237  -74.9973 C.2       4 UNK         0.5053 
     51 O         -77.0984   21.8254  -75.4296 O.2       4 UNK        -0.5105 
     52 CA        -78.8645   23.4416  -75.3010 C.3       4 UNK         0.0263 
     53 CB        -79.6754   23.6799  -74.0096 C.3       4 UNK        -0.1981 
     54 N         -78.8765   24.6170  -76.1838 N.am      4 UNK        -0.4224 
     55 C         -78.4328   25.8585  -75.9361 C.2       3 UNK         0.4895 
     56 O         -77.9344   26.2159  -74.8688 O.2       3 UNK        -0.5091 
     57 CA        -78.6102   26.8964  -77.0515 C.3       3 UNK         0.0250 
     58 CB        -78.8792   26.3046  -78.4524 C.3       3 UNK        -0.1996 
     59 N         -79.6975   27.7783  -76.6480 N.am      3 UNK        -0.4254 
     60 C         -79.8670   29.0526  -77.0202 C.2       2 UNK         0.5004 
     61 O         -79.1518   29.6346  -77.8348 O.2       2 UNK        -0.5226 
     62 CA        -81.0381   29.8120  -76.3667 C.3       2 UNK         0.0269 
     63 CB        -82.2459   29.8637  -77.3164 C.3       2 UNK        -0.1926 
     64 N         -81.4566   29.2239  -75.0889 N.am      2 UNK        -0.4687 
     65 C         -80.7509   29.3104  -73.9514 C.2       1 UNK         0.5165 
     66 O         -79.7274   29.9825  -73.8365 O.2       1 UNK        -0.5079 
     67 H67       -82.9802   31.0706  -73.1812 H         1 UNK         0.0900 
     68 H68       -84.3271   31.0832  -72.0512 H         1 UNK         0.0900 
     69 H69       -82.7265   30.6502  -71.4763 H         1 UNK         0.0900 
     70 H70       -82.9424   27.2575  -72.9774 H         1 UNK         0.2959 
     71 H71       -81.0610   29.1009  -71.8550 H         1 UNK         0.1079 
     72 H72       -80.6027   26.5627  -73.4974 H         1 UNK         0.0837 
     73 H73       -79.3621   27.4031  -72.6233 H         1 UNK         0.0837 
     74 H74       -80.1392   26.5889  -68.8832 H         1 UNK         0.0685 
     75 H75       -80.2775   28.0926  -69.7522 H         1 UNK         0.0685 
     76 H76       -78.2114   24.9581  -69.5668 H         1 UNK         0.1434 
     77 H77       -74.5754   26.9808  -70.6152 H         1 UNK         0.1329 
     78 H78       -78.2924   29.1132  -70.6318 H         1 UNK         0.1335 
     79 H79       -74.7908   29.6106  -70.3857 H         1 UNK         0.0680 
     80 H80       -76.2600   30.3218  -71.0044 H         1 UNK         0.0680 
     81 H81       -77.0826   30.2976  -73.3386 H         1 UNK         0.1032 
     82 H82       -77.0350   28.6027  -73.7240 H         1 UNK         0.1032 
     83 H83       -77.0910   29.8812  -75.7883 H         1 UNK         0.0461 
     84 H84       -73.6924   30.6681  -75.9839 H         1 UNK         0.3453 
     85 H85       -73.9191   32.3994  -75.8934 H         1 UNK         0.3453 
     86 H86       -74.8936   28.1600  -75.2341 H         1 UNK         0.2984 
     87 H87       -74.7454   26.6292  -77.6742 H         1 UNK         0.0554 
     88 H88       -74.1684   27.8512  -79.7386 H         1 UNK         0.0847 
     89 H89       -72.7760   26.9312  -79.1953 H         1 UNK         0.0847 
     90 H90       -72.8411   28.6735  -78.9322 H         1 UNK         0.0847 
     91 H91       -73.2372   26.2959  -76.1113 H         1 UNK         0.3141 
     92 H92       -70.2990   27.9256  -75.0371 H         1 UNK         0.0743 
     93 H93       -71.1391   27.2762  -72.7869 H         1 UNK         0.0784 
     94 H94       -71.9594   28.7183  -73.3618 H         1 UNK         0.0784 
     95 H95       -72.7850   27.1648  -73.4076 H         1 UNK         0.0784 
     96 H96       -71.8783   25.3901  -74.9237 H         1 UNK         0.3213 
     97 H97       -69.5036   23.6625  -76.9017 H         1 UNK         0.0855 
     98 H98       -70.1400   23.2784  -73.9228 H         1 UNK         0.0814 
     99 H99       -68.5297   23.4206  -74.6128 H         1 UNK         0.0814 
    100 H100      -69.5314   22.0385  -75.0211 H         1 UNK         0.0814 
    101 H101      -71.9407   22.8755  -75.5937 H         1 UNK         0.3105 
    102 H102      -74.2203   24.1824  -77.8804 H         1 UNK         0.0547 
    103 H103      -73.3781   21.2383  -77.9393 H         1 UNK         0.0837 
    104 H104      -73.4332   22.3044  -79.3359 H         1 UNK         0.0837 
    105 H105      -74.9179   21.8948  -78.4966 H         1 UNK         0.0837 
    106 H106      -74.8725   22.2284  -76.0962 H         1 UNK         0.3020 
    107 H107      -75.1385   22.3600  -73.8046 H         1 UNK         0.1245 
    108 H108      -75.0870   25.1721  -72.5995 H         1 UNK         0.0781 
    109 H109      -73.8198   23.9861  -72.3708 H         1 UNK         0.0781 
    110 H110      -74.4618   24.7399  -69.7524 H         1 UNK         0.0836 
    111 H111      -75.8415   24.0912  -68.9043 H         1 UNK         0.0836 
    112 H112      -77.0078   24.6504  -74.0548 H         1 UNK         0.3022 
    113 H113      -79.3729   22.6513  -75.8560 H         1 UNK         0.0747 
    114 H114      -80.6963   23.9886  -74.2334 H         1 UNK         0.0793 
    115 H115      -79.7366   22.7660  -73.4175 H         1 UNK         0.0793 
    116 H116      -79.2284   24.4426  -73.3713 H         1 UNK         0.0793 
    117 H117      -79.2514   24.4447  -77.1064 H         1 UNK         0.3047 
    118 H118      -77.6868   27.4741  -77.0925 H         1 UNK         0.0822 
    119 H119      -78.8798   27.0888  -79.2099 H         1 UNK         0.0807 
    120 H120      -79.8434   25.7982  -78.5094 H         1 UNK         0.0807 
    121 H121      -78.1033   25.5926  -78.7375 H         1 UNK         0.0807 
    122 H122      -80.3258   27.4019  -75.9530 H         1 UNK         0.2946 
    123 H123      -80.6989   30.8346  -76.1838 H         1 UNK         0.1144 
    124 H124      -83.0581   30.4555  -76.8938 H         1 UNK         0.0793 
    125 H125      -82.6327   28.8674  -77.5344 H         1 UNK         0.0793 
    126 H126      -81.9738   30.3228  -78.2680 H         1 UNK         0.0793 
    127 H127      -82.3030   28.6718  -75.0899 H         1 UNK         0.2896 
@<TRIPOS>BOND
     1    1    2 1    
     2    1   67 1    
     3    1   68 1    
     4    1   69 1    
     5    2    3 2    
     6    2    4 am   BACKBONE|DICT|INTERRES
     7    4    5 1    
     8    4   70 1    
     9    5    6 1    
    10    5   65 1    
    11    5   71 1    
    12    6    7 1    
    13    6   72 1    
    14    6   73 1    
    15    7    8 1    
    16    8    9 1    
    17    8   74 1    
    18    8   75 1    
    19    9   10 ar   
    20    9   14 ar   
    21   10   11 ar   
    22   10   76 1    
    23   11   12 ar   
    24   11   48 1    
    25   12   13 ar   
    26   12   77 1    
    27   13   14 ar   
    28   13   15 1    
    29   14   78 1    
    30   15   16 1    
    31   15   79 1    
    32   15   80 1    
    33   16   17 1    
    34   17   18 1    
    35   17   81 1    
    36   17   82 1    
    37   18   19 1    
    38   18   22 1    
    39   18   83 1    
    40   19   20 am   BACKBONE|DICT|INTERRES
    41   19   21 2    
    42   20   84 1    
    43   20   85 1    
    44   22   23 am   BACKBONE|DICT|INTERRES
    45   22   86 1    
    46   23   24 2    
    47   23   25 1    
    48   25   26 1    
    49   25   27 1    
    50   25   87 1    
    51   26   88 1    
    52   26   89 1    
    53   26   90 1    
    54   27   28 am   BACKBONE|DICT|INTERRES
    55   27   91 1    
    56   28   29 2    
    57   28   30 1    
    58   30   31 1    
    59   30   32 1    
    60   30   92 1    
    61   31   93 1    
    62   31   94 1    
    63   31   95 1    
    64   32   33 am   BACKBONE|DICT|INTERRES
    65   32   96 1    
    66   33   34 2    
    67   33   35 1    
    68   35   36 1    
    69   35   37 1    
    70   35   97 1    
    71   36   98 1    
    72   36   99 1    
    73   36  100 1    
    74   37   38 am   BACKBONE|DICT|INTERRES
    75   37  101 1    
    76   38   39 2    
    77   38   40 1    
    78   40   41 1    
    79   40   42 1    
    80   40  102 1    
    81   41  103 1    
    82   41  104 1    
    83   41  105 1    
    84   42   43 am   BACKBONE|DICT|INTERRES
    85   42  106 1    
    86   43   44 2    
    87   43   45 1    
    88   45   46 1    
    89   45   49 1    
    90   45  107 1    
    91   46   47 1    
    92   46  108 1    
    93   46  109 1    
    94   47   48 1    
    95   48  110 1    
    96   48  111 1    
    97   49   50 am   BACKBONE|DICT|INTERRES
    98   49  112 1    
    99   50   51 2    
   100   50   52 1    
   101   52   53 1    
   102   52   54 1    
   103   52  113 1    
   104   53  114 1    
   105   53  115 1    
   106   53  116 1    
   107   54   55 am   BACKBONE|DICT|INTERRES
   108   54  117 1    
   109   55   56 2    
   110   55   57 1    
   111   57   58 1    
   112   57   59 1    
   113   57  118 1    
   114   58  119 1    
   115   58  120 1    
   116   58  121 1    
   117   59   60 am   BACKBONE|DICT|INTERRES
   118   59  122 1    
   119   60   61 2    
   120   60   62 1    
   121   62   63 1    
   122   62   64 1    
   123   62  123 1    
   124   63  124 1    
   125   63  125 1    
   126   63  126 1    
   127   64   65 am   BACKBONE|DICT|INTERRES
   128   64  127 1    
   129   65   66 2    
@<TRIPOS>SUBSTRUCTURE
     1 UNK         1 GROUP             0       ****    0 ROOT    
