@<TRIPOS>MOLECULE
3R135
127   129    1
SMALL
USER_CHARGES


@<TRIPOS>ATOM
      1 CA        -80.0760   23.7378  -71.1853 C.3       0 UNK        -0.1998 
      2 C         -80.7494   24.3629  -72.3975 C.2       0 UNK         0.4909 
      3 O         -81.4435   23.6645  -73.1380 O.2       0 UNK        -0.5240 
      4 N         -80.5429   25.6717  -72.5993 N.am      1 UNK        -0.4739 
      5 CA        -81.1119   26.5011  -73.6724 C.3       1 UNK         0.0864 
      6 C6        -80.5692   27.9514  -73.6231 C.3       11 UNK        -0.0881 
      7 S7        -80.7897   28.7289  -71.9861 S.3       11 UNK        -0.2682 
      8 C8        -79.5575   30.0761  -72.0403 C.3       11 UNK         0.0289 
      9 C9        -78.1223   29.6078  -72.2737 C.ar      11 UNK        -0.0687 
     10 C10       -77.6108   28.4759  -71.6265 C.ar      11 UNK        -0.0823 
     11 C11       -76.2984   28.0550  -71.8602 C.ar      11 UNK        -0.0830 
     12 C12       -75.4864   28.7893  -72.7273 C.ar      11 UNK        -0.1021 
     13 C13       -75.9739   29.9343  -73.3615 C.ar      11 UNK        -0.0753 
     14 C14       -77.2943   30.3333  -73.1373 C.ar      11 UNK        -0.0933 
     15 C15       -75.0817   30.7218  -74.3104 C.3       11 UNK         0.0166 
     16 S16       -74.3854   32.2169  -73.5338 S.3       11 UNK        -0.2615 
     17 C17       -73.2806   31.5222  -72.2554 C.3       11 UNK        -0.0865 
     18 CA        -71.8002   31.9567  -72.4102 C.3       10 UNK         0.0862 
     19 C         -70.9813   31.4553  -71.1871 C.2       10 UNK         0.5551 
     20 N         -70.7874   32.2976  -70.1817 N.am      10 UNK        -0.7319 
     21 O         -70.5679   30.2988  -71.1250 O.2       10 UNK        -0.5018 
     22 N         -71.2392   31.5130  -73.6965 N.am      10 UNK        -0.4509 
     23 C         -69.9909   31.7292  -74.1312 C.2       10 UNK         0.4899 
     24 O         -69.1703   32.4271  -73.5326 O.2       10 UNK        -0.4839 
     25 CA        -69.5926   31.0399  -75.4548 C.3       9 UNK         0.0222 
     26 CB        -68.1055   31.2409  -75.8048 C.3       9 UNK        -0.1966 
     27 N         -69.8872   29.6015  -75.4413 N.am      9 UNK        -0.4218 
     28 C         -71.0946   29.0665  -75.6571 C.2       9 UNK         0.5020 
     29 O         -72.0997   29.7414  -75.8847 O.2       9 UNK        -0.5274 
     30 CA        -71.2120   27.5388  -75.5253 C.3       8 UNK         0.0270 
     31 CB        -71.4533   27.1490  -74.0568 C.3       8 UNK        -0.1976 
     32 N         -72.3089   27.0116  -76.3393 N.am      8 UNK        -0.4313 
     33 C         -72.3140   26.9539  -77.6779 C.2       8 UNK         0.5041 
     34 O         -71.3438   27.2505  -78.3777 O.2       8 UNK        -0.5577 
     35 CA        -73.6066   26.4648  -78.3589 C.3       7 UNK         0.0284 
     36 CB        -73.4520   25.0053  -78.8172 C.3       7 UNK        -0.1958 
     37 N         -74.7994   26.5712  -77.5132 N.am      7 UNK        -0.4454 
     38 C         -75.4288   27.7072  -77.1917 C.2       7 UNK         0.5089 
     39 O         -75.0750   28.8148  -77.5944 O.2       7 UNK        -0.5125 
     40 CA        -76.6545   27.6114  -76.2610 C.3       6 UNK         0.0408 
     41 CB        -77.9639   27.6381  -77.0732 C.3       6 UNK        -0.1791 
     42 N         -76.6482   26.5007  -75.2922 N.am      6 UNK        -0.4762 
     43 C         -76.7346   25.1801  -75.5193 C.2       6 UNK         0.5007 
     44 O         -76.7226   24.6853  -76.6483 O.2       6 UNK        -0.5032 
     45 CA        -76.8209   24.2399  -74.3011 C.3       5 UNK         0.0783 
     46 C46       -76.9050   24.9318  -72.9131 C.3       11 UNK        -0.0857 
     47 S47       -75.2751   25.5184  -72.3457 S.3       11 UNK        -0.2512 
     48 C48       -75.7444   26.8208  -71.1631 C.3       11 UNK         0.0225 
     49 N         -77.9219   23.2990  -74.5183 N.am      5 UNK        -0.4615 
     50 C         -77.9026   22.0216  -74.1238 C.2       4 UNK         0.5053 
     51 O         -76.9592   21.5347  -73.4986 O.2       4 UNK        -0.5105 
     52 CA        -79.0933   21.1103  -74.4719 C.3       4 UNK         0.0263 
     53 CB        -79.5681   20.2937  -73.2529 C.3       4 UNK        -0.1981 
     54 N         -80.2503   21.7943  -75.0630 N.am      4 UNK        -0.4224 
     55 C         -80.9965   21.2569  -76.0409 C.2       3 UNK         0.4895 
     56 O         -80.6860   20.2380  -76.6604 O.2       3 UNK        -0.5091 
     57 CA        -82.3395   21.9294  -76.3661 C.3       3 UNK         0.0250 
     58 CB        -83.4086   21.5293  -75.3356 C.3       3 UNK        -0.1996 
     59 N         -82.2476   23.3850  -76.4345 N.am      3 UNK        -0.4254 
     60 C         -81.7624   24.0664  -77.4822 C.2       2 UNK         0.5004 
     61 O         -81.3604   23.5333  -78.5171 O.2       2 UNK        -0.5226 
     62 CA        -81.7316   25.6048  -77.3730 C.3       2 UNK         0.0269 
     63 CB        -82.8632   26.2280  -78.2068 C.3       2 UNK        -0.1926 
     64 N         -81.8145   26.1134  -75.9980 N.am      2 UNK        -0.4687 
     65 C         -80.8669   25.9103  -75.0748 C.2       1 UNK         0.5165 
     66 O         -79.8315   25.2863  -75.3045 O.2       1 UNK        -0.5079 
     67 H67       -80.8117   23.2085  -70.5805 H         1 UNK         0.0900 
     68 H68       -79.3175   23.0234  -71.5011 H         1 UNK         0.0900 
     69 H69       -79.5957   24.4859  -70.5550 H         1 UNK         0.0900 
     70 H70       -79.9761   26.1837  -71.9402 H         1 UNK         0.2959 
     71 H71       -82.1905   26.5266  -73.5043 H         1 UNK         0.1079 
     72 H72       -81.0712   28.5781  -74.3629 H         1 UNK         0.0837 
     73 H73       -79.5096   27.9600  -73.8861 H         1 UNK         0.0837 
     74 H74       -79.8599   30.7811  -72.8164 H         1 UNK         0.0685 
     75 H75       -79.5952   30.6215  -71.0966 H         1 UNK         0.0685 
     76 H76       -78.2380   27.9210  -70.9429 H         1 UNK         0.1434 
     77 H77       -74.4714   28.4643  -72.9066 H         1 UNK         0.1329 
     78 H78       -77.6730   31.2159  -73.6346 H         1 UNK         0.1335 
     79 H79       -74.2752   30.0899  -74.6781 H         1 UNK         0.0680 
     80 H80       -75.6564   31.0164  -75.1898 H         1 UNK         0.0680 
     81 H81       -73.6720   31.8427  -71.2877 H         1 UNK         0.1032 
     82 H82       -73.3441   30.4344  -72.2539 H         1 UNK         0.1032 
     83 H83       -71.7654   33.0480  -72.4159 H         1 UNK         0.0461 
     84 H84       -71.1319   33.2445  -70.2206 H         1 UNK         0.3453 
     85 H85       -70.2736   31.9851  -69.3726 H         1 UNK         0.3453 
     86 H86       -71.8424   30.9432  -74.2795 H         1 UNK         0.2984 
     87 H87       -70.1796   31.5111  -76.2461 H         1 UNK         0.0554 
     88 H88       -67.8614   32.3012  -75.8828 H         1 UNK         0.0847 
     89 H89       -67.8576   30.7846  -76.7633 H         1 UNK         0.0847 
     90 H90       -67.4494   30.8102  -75.0473 H         1 UNK         0.0847 
     91 H91       -69.1194   28.9881  -75.2066 H         1 UNK         0.3141 
     92 H92       -70.2798   27.0829  -75.8659 H         1 UNK         0.0743 
     93 H93       -72.3791   27.5775  -73.6718 H         1 UNK         0.0784 
     94 H94       -71.5099   26.0669  -73.9362 H         1 UNK         0.0784 
     95 H95       -70.6432   27.5027  -73.4172 H         1 UNK         0.0784 
     96 H96       -73.1641   26.7806  -75.8576 H         1 UNK         0.3213 
     97 H97       -73.7616   27.0872  -79.2429 H         1 UNK         0.0855 
     98 H98       -73.3071   24.3302  -77.9728 H         1 UNK         0.0814 
     99 H99       -72.5908   24.8919  -79.4774 H         1 UNK         0.0814 
    100 H100      -74.3288   24.6678  -79.3704 H         1 UNK         0.0814 
    101 H101      -75.2351   25.7063  -77.2046 H         1 UNK         0.3105 
    102 H102      -76.6415   28.5183  -75.6575 H         1 UNK         0.0547 
    103 H103      -78.8310   27.7235  -76.4198 H         1 UNK         0.0837 
    104 H104      -78.0885   26.7416  -77.6807 H         1 UNK         0.0837 
    105 H105      -77.9866   28.4934  -77.7496 H         1 UNK         0.0837 
    106 H106      -76.5960   26.7915  -74.3244 H         1 UNK         0.3020 
    107 H107      -75.8896   23.6692  -74.3355 H         1 UNK         0.1245 
    108 H108      -77.2461   24.2177  -72.1628 H         1 UNK         0.0781 
    109 H109      -77.6420   25.7363  -72.9091 H         1 UNK         0.0781 
    110 H110      -74.8628   27.1070  -70.5878 H         1 UNK         0.0836 
    111 H111      -76.4597   26.4157  -70.4454 H         1 UNK         0.0836 
    112 H112      -78.7038   23.6767  -75.0467 H         1 UNK         0.3022 
    113 H113      -78.6814   20.4057  -75.1972 H         1 UNK         0.0747 
    114 H114      -80.3037   19.5437  -73.5440 H         1 UNK         0.0793 
    115 H115      -78.7429   19.7609  -72.7787 H         1 UNK         0.0793 
    116 H116      -80.0269   20.9306  -72.4967 H         1 UNK         0.0793 
    117 H117      -80.6026   22.6095  -74.5664 H         1 UNK         0.3047 
    118 H118      -82.6655   21.5597  -77.3411 H         1 UNK         0.0822 
    119 H119      -84.3863   21.9311  -75.6023 H         1 UNK         0.0807 
    120 H120      -83.1619   21.8841  -74.3341 H         1 UNK         0.0807 
    121 H121      -83.5094   20.4444  -75.2803 H         1 UNK         0.0807 
    122 H122      -82.5299   23.9005  -75.6130 H         1 UNK         0.2946 
    123 H123      -80.7768   25.9301  -77.7932 H         1 UNK         0.1144 
    124 H124      -82.7982   27.3162  -78.2150 H         1 UNK         0.0793 
    125 H125      -83.8463   25.9511  -77.8240 H         1 UNK         0.0793 
    126 H126      -82.8127   25.8956  -79.2448 H         1 UNK         0.0793 
    127 H127      -82.6439   26.6371  -75.7555 H         1 UNK         0.2896 
@<TRIPOS>BOND
     1    1    2 1    
     2    1   67 1    
     3    1   68 1    
     4    1   69 1    
     5    2    3 2    
     6    2    4 am   BACKBONE|DICT|INTERRES
     7    4    5 1    
     8    4   70 1    
     9    5    6 1    
    10    5   65 1    
    11    5   71 1    
    12    6    7 1    
    13    6   72 1    
    14    6   73 1    
    15    7    8 1    
    16    8    9 1    
    17    8   74 1    
    18    8   75 1    
    19    9   10 ar   
    20    9   14 ar   
    21   10   11 ar   
    22   10   76 1    
    23   11   12 ar   
    24   11   48 1    
    25   12   13 ar   
    26   12   77 1    
    27   13   14 ar   
    28   13   15 1    
    29   14   78 1    
    30   15   16 1    
    31   15   79 1    
    32   15   80 1    
    33   16   17 1    
    34   17   18 1    
    35   17   81 1    
    36   17   82 1    
    37   18   19 1    
    38   18   22 1    
    39   18   83 1    
    40   19   20 am   BACKBONE|DICT|INTERRES
    41   19   21 2    
    42   20   84 1    
    43   20   85 1    
    44   22   23 am   BACKBONE|DICT|INTERRES
    45   22   86 1    
    46   23   24 2    
    47   23   25 1    
    48   25   26 1    
    49   25   27 1    
    50   25   87 1    
    51   26   88 1    
    52   26   89 1    
    53   26   90 1    
    54   27   28 am   BACKBONE|DICT|INTERRES
    55   27   91 1    
    56   28   29 2    
    57   28   30 1    
    58   30   31 1    
    59   30   32 1    
    60   30   92 1    
    61   31   93 1    
    62   31   94 1    
    63   31   95 1    
    64   32   33 am   BACKBONE|DICT|INTERRES
    65   32   96 1    
    66   33   34 2    
    67   33   35 1    
    68   35   36 1    
    69   35   37 1    
    70   35   97 1    
    71   36   98 1    
    72   36   99 1    
    73   36  100 1    
    74   37   38 am   BACKBONE|DICT|INTERRES
    75   37  101 1    
    76   38   39 2    
    77   38   40 1    
    78   40   41 1    
    79   40   42 1    
    80   40  102 1    
    81   41  103 1    
    82   41  104 1    
    83   41  105 1    
    84   42   43 am   BACKBONE|DICT|INTERRES
    85   42  106 1    
    86   43   44 2    
    87   43   45 1    
    88   45   46 1    
    89   45   49 1    
    90   45  107 1    
    91   46   47 1    
    92   46  108 1    
    93   46  109 1    
    94   47   48 1    
    95   48  110 1    
    96   48  111 1    
    97   49   50 am   BACKBONE|DICT|INTERRES
    98   49  112 1    
    99   50   51 2    
   100   50   52 1    
   101   52   53 1    
   102   52   54 1    
   103   52  113 1    
   104   53  114 1    
   105   53  115 1    
   106   53  116 1    
   107   54   55 am   BACKBONE|DICT|INTERRES
   108   54  117 1    
   109   55   56 2    
   110   55   57 1    
   111   57   58 1    
   112   57   59 1    
   113   57  118 1    
   114   58  119 1    
   115   58  120 1    
   116   58  121 1    
   117   59   60 am   BACKBONE|DICT|INTERRES
   118   59  122 1    
   119   60   61 2    
   120   60   62 1    
   121   62   63 1    
   122   62   64 1    
   123   62  123 1    
   124   63  124 1    
   125   63  125 1    
   126   63  126 1    
   127   64   65 am   BACKBONE|DICT|INTERRES
   128   64  127 1    
   129   65   66 2    
@<TRIPOS>SUBSTRUCTURE
     1 UNK         1 GROUP             0       ****    0 ROOT    
