@<TRIPOS>MOLECULE
3R135
127   129    1
SMALL
USER_CHARGES


@<TRIPOS>ATOM
      1 CA        -82.9412   22.5763  -70.5482 C.3       0 UNK        -0.1998 
      2 C         -81.6973   23.4583  -70.4846 C.2       0 UNK         0.4909 
      3 O         -80.8094   23.1932  -69.6771 O.2       0 UNK        -0.5240 
      4 N         -81.5789   24.5113  -71.3062 N.am      1 UNK        -0.4739 
      5 CA        -82.5254   24.9441  -72.3451 C.3       1 UNK         0.0864 
      6 C6        -82.4303   26.4707  -72.6025 C.3       11 UNK        -0.0881 
      7 S7        -80.7568   27.0754  -73.0356 S.3       11 UNK        -0.2682 
      8 C8        -80.4328   28.1670  -71.6158 C.3       11 UNK         0.0289 
      9 C9        -79.1746   28.9997  -71.8067 C.ar      11 UNK        -0.0687 
     10 C10       -79.2150   30.1535  -72.5946 C.ar      11 UNK        -0.0823 
     11 C11       -78.0820   30.9616  -72.7292 C.ar      11 UNK        -0.0830 
     12 C12       -76.9087   30.6150  -72.0548 C.ar      11 UNK        -0.1021 
     13 C13       -76.8406   29.4407  -71.2997 C.ar      11 UNK        -0.0753 
     14 C14       -77.9815   28.6421  -71.1713 C.ar      11 UNK        -0.0933 
     15 C15       -75.5408   29.0371  -70.6167 C.3       11 UNK         0.0166 
     16 S16       -74.3032   28.4372  -71.8134 S.3       11 UNK        -0.2615 
     17 C17       -73.5299   30.0062  -72.3478 C.3       11 UNK        -0.0865 
     18 CA        -72.0984   29.8551  -72.9178 C.3       10 UNK         0.0862 
     19 C         -71.0723   29.3561  -71.8557 C.2       10 UNK         0.5551 
     20 N         -70.3910   28.2328  -72.0525 N.am      10 UNK        -0.7319 
     21 O         -70.8792   30.0163  -70.8375 O.2       10 UNK        -0.5018 
     22 N         -72.0992   29.1112  -74.1852 N.am      10 UNK        -0.4509 
     23 C         -71.1443   29.2163  -75.1193 C.2       10 UNK         0.4899 
     24 O         -70.2268   30.0372  -75.0626 O.2       10 UNK        -0.4839 
     25 CA        -71.2161   28.2385  -76.3104 C.3       9 UNK         0.0222 
     26 CB        -69.8387   27.9998  -76.9630 C.3       9 UNK        -0.1966 
     27 N         -71.8527   26.9551  -75.9934 N.am      9 UNK        -0.4218 
     28 C         -71.5177   26.0772  -75.0332 C.2       9 UNK         0.5020 
     29 O         -70.5883   26.2498  -74.2432 O.2       9 UNK        -0.5274 
     30 CA        -72.3746   24.8039  -74.9118 C.3       8 UNK         0.0270 
     31 CB        -72.9949   24.6913  -73.5068 C.3       8 UNK        -0.1976 
     32 N         -73.4442   24.7798  -75.9153 N.am      8 UNK        -0.4313 
     33 C         -73.4263   24.0348  -77.0281 C.2       8 UNK         0.5041 
     34 O         -72.5500   23.2080  -77.2846 O.2       8 UNK        -0.5577 
     35 CA        -74.5586   24.2540  -78.0451 C.3       7 UNK         0.0284 
     36 CB        -75.7558   23.3394  -77.7378 C.3       7 UNK        -0.1958 
     37 N         -75.0137   25.6439  -78.1612 N.am      7 UNK        -0.4454 
     38 C         -74.2851   26.6469  -78.6740 C.2       7 UNK         0.5089 
     39 O         -73.0938   26.5451  -78.9631 O.2       7 UNK        -0.5125 
     40 CA        -74.9982   27.9877  -78.9068 C.3       6 UNK         0.0408 
     41 CB        -75.9259   27.8978  -80.1295 C.3       6 UNK        -0.1791 
     42 N         -75.7793   28.3773  -77.7358 N.am      6 UNK        -0.4762 
     43 C         -75.4147   29.3073  -76.8405 C.2       6 UNK         0.5007 
     44 O         -74.4091   30.0096  -76.9488 O.2       6 UNK        -0.5032 
     45 CA        -76.3120   29.4506  -75.5887 C.3       5 UNK         0.0783 
     46 C46       -77.4042   30.5387  -75.7974 C.3       11 UNK        -0.0857 
     47 S47       -76.9454   32.1159  -75.0028 S.3       11 UNK        -0.2512 
     48 C48       -78.1232   32.2044  -73.6098 C.3       11 UNK         0.0225 
     49 N         -76.8902   28.1762  -75.1463 N.am      5 UNK        -0.4615 
     50 C         -76.1934   27.0659  -74.8682 C.2       4 UNK         0.5053 
     51 O         -74.9661   26.9922  -74.9227 O.2       4 UNK        -0.5105 
     52 CA        -76.9962   25.7899  -74.5748 C.3       4 UNK         0.0263 
     53 CB        -77.1804   25.5930  -73.0640 C.3       4 UNK        -0.1981 
     54 N         -78.2990   25.7108  -75.2469 N.am      4 UNK        -0.4224 
     55 C         -78.5170   25.7960  -76.5697 C.2       3 UNK         0.4895 
     56 O         -77.6444   26.0986  -77.3864 O.2       3 UNK        -0.5091 
     57 CA        -79.9475   25.4907  -77.0591 C.3       3 UNK         0.0250 
     58 CB        -79.9871   25.0968  -78.5509 C.3       3 UNK        -0.1996 
     59 N         -80.6385   24.4868  -76.2372 N.am      3 UNK        -0.4254 
     60 C         -80.2491   23.2280  -75.9766 C.2       2 UNK         0.5004 
     61 O         -79.2495   22.7027  -76.4689 O.2       2 UNK        -0.5226 
     62 CA        -81.0991   22.4498  -74.9509 C.3       2 UNK         0.0269 
     63 CB        -80.4274   21.1403  -74.4955 C.3       2 UNK        -0.1926 
     64 N         -81.3938   23.2623  -73.7648 N.am      2 UNK        -0.4687 
     65 C         -82.3993   24.1425  -73.6596 C.2       1 UNK         0.5165 
     66 O         -83.1976   24.3529  -74.5732 O.2       1 UNK        -0.5079 
     67 H67       -83.8294   23.1394  -70.2633 H         1 UNK         0.0900 
     68 H68       -83.0868   22.1656  -71.5464 H         1 UNK         0.0900 
     69 H69       -82.8479   21.7371  -69.8591 H         1 UNK         0.0900 
     70 H70       -80.7458   25.0788  -71.2399 H         1 UNK         0.2959 
     71 H71       -83.5396   24.7566  -71.9880 H         1 UNK         0.1079 
     72 H72       -83.1180   26.7748  -73.3944 H         1 UNK         0.0837 
     73 H73       -82.7833   26.9952  -71.7133 H         1 UNK         0.0837 
     74 H74       -81.2818   28.8373  -71.4726 H         1 UNK         0.0685 
     75 H75       -80.3601   27.5653  -70.7085 H         1 UNK         0.0685 
     76 H76       -80.1338   30.4213  -73.0985 H         1 UNK         0.1434 
     77 H77       -76.0419   31.2529  -72.1427 H         1 UNK         0.1329 
     78 H78       -77.9433   27.7437  -70.5706 H         1 UNK         0.1335 
     79 H79       -75.7276   28.2414  -69.8941 H         1 UNK         0.0680 
     80 H80       -75.1434   29.8753  -70.0430 H         1 UNK         0.0680 
     81 H81       -74.1628   30.4666  -73.1055 H         1 UNK         0.1032 
     82 H82       -73.5164   30.7058  -71.5102 H         1 UNK         0.1032 
     83 H83       -71.7721   30.8690  -73.1580 H         1 UNK         0.0461 
     84 H84       -70.5352   27.6685  -72.8842 H         1 UNK         0.3453 
     85 H85       -69.7284   27.9326  -71.3561 H         1 UNK         0.3453 
     86 H86       -72.8142   28.4034  -74.2875 H         1 UNK         0.2984 
     87 H87       -71.8562   28.7158  -77.0537 H         1 UNK         0.0554 
     88 H88       -69.4076   28.9331  -77.3273 H         1 UNK         0.0847 
     89 H89       -69.9172   27.3278  -77.8177 H         1 UNK         0.0847 
     90 H90       -69.1289   27.5656  -76.2580 H         1 UNK         0.0847 
     91 H91       -72.6234   26.7023  -76.5956 H         1 UNK         0.3141 
     92 H92       -71.7036   23.9538  -75.0499 H         1 UNK         0.0743 
     93 H93       -72.2186   24.6019  -72.7458 H         1 UNK         0.0784 
     94 H94       -73.5934   25.5657  -73.2510 H         1 UNK         0.0784 
     95 H95       -73.6326   23.8114  -73.4228 H         1 UNK         0.0784 
     96 H96       -74.1866   25.4602  -75.7733 H         1 UNK         0.3213 
     97 H97       -74.1667   23.9642  -79.0228 H         1 UNK         0.0855 
     98 H98       -76.2113   23.5684  -76.7753 H         1 UNK         0.0814 
     99 H99       -75.4499   22.2928  -77.7100 H         1 UNK         0.0814 
    100 H100      -76.5310   23.4289  -78.4992 H         1 UNK         0.0814 
    101 H101      -75.9927   25.8173  -77.9342 H         1 UNK         0.3105 
    102 H102      -74.2354   28.7391  -79.1216 H         1 UNK         0.0547 
    103 H103      -76.3853   28.8620  -80.3469 H         1 UNK         0.0837 
    104 H104      -75.3715   27.5957  -81.0190 H         1 UNK         0.0837 
    105 H105      -76.7275   27.1727  -79.9816 H         1 UNK         0.0837 
    106 H106      -76.5962   27.8093  -77.5337 H         1 UNK         0.3020 
    107 H107      -75.6504   29.7536  -74.7755 H         1 UNK         0.1245 
    108 H108      -78.3652   30.2142  -75.3967 H         1 UNK         0.0781 
    109 H109      -77.6004   30.7304  -76.8546 H         1 UNK         0.0781 
    110 H110      -79.1262   32.3663  -74.0078 H         1 UNK         0.0836 
    111 H111      -77.8899   33.0805  -73.0032 H         1 UNK         0.0836 
    112 H112      -77.8953   28.1360  -75.0701 H         1 UNK         0.3022 
    113 H113      -76.3984   24.9548  -74.9408 H         1 UNK         0.0747 
    114 H114      -77.5813   24.6049  -72.8381 H         1 UNK         0.0793 
    115 H115      -76.2301   25.6865  -72.5356 H         1 UNK         0.0793 
    116 H116      -77.8596   26.3331  -72.6459 H         1 UNK         0.0793 
    117 H117      -79.0902   25.4962  -74.6577 H         1 UNK         0.3047 
    118 H118      -80.5086   26.4194  -76.9458 H         1 UNK         0.0822 
    119 H119      -79.5974   25.8989  -79.1790 H         1 UNK         0.0807 
    120 H120      -81.0056   24.8943  -78.8816 H         1 UNK         0.0807 
    121 H121      -79.3861   24.2088  -78.7500 H         1 UNK         0.0807 
    122 H122      -81.4918   24.7984  -75.7869 H         1 UNK         0.2946 
    123 H123      -82.0345   22.1869  -75.4507 H         1 UNK         0.1144 
    124 H124      -81.0569   20.5953  -73.7918 H         1 UNK         0.0793 
    125 H125      -79.4667   21.3258  -74.0135 H         1 UNK         0.0793 
    126 H126      -80.2454   20.4777  -75.3428 H         1 UNK         0.0793 
    127 H127      -80.7560   23.1768  -72.9860 H         1 UNK         0.2896 
@<TRIPOS>BOND
     1    1    2 1    
     2    1   67 1    
     3    1   68 1    
     4    1   69 1    
     5    2    3 2    
     6    2    4 am   BACKBONE|DICT|INTERRES
     7    4    5 1    
     8    4   70 1    
     9    5    6 1    
    10    5   65 1    
    11    5   71 1    
    12    6    7 1    
    13    6   72 1    
    14    6   73 1    
    15    7    8 1    
    16    8    9 1    
    17    8   74 1    
    18    8   75 1    
    19    9   10 ar   
    20    9   14 ar   
    21   10   11 ar   
    22   10   76 1    
    23   11   12 ar   
    24   11   48 1    
    25   12   13 ar   
    26   12   77 1    
    27   13   14 ar   
    28   13   15 1    
    29   14   78 1    
    30   15   16 1    
    31   15   79 1    
    32   15   80 1    
    33   16   17 1    
    34   17   18 1    
    35   17   81 1    
    36   17   82 1    
    37   18   19 1    
    38   18   22 1    
    39   18   83 1    
    40   19   20 am   BACKBONE|DICT|INTERRES
    41   19   21 2    
    42   20   84 1    
    43   20   85 1    
    44   22   23 am   BACKBONE|DICT|INTERRES
    45   22   86 1    
    46   23   24 2    
    47   23   25 1    
    48   25   26 1    
    49   25   27 1    
    50   25   87 1    
    51   26   88 1    
    52   26   89 1    
    53   26   90 1    
    54   27   28 am   BACKBONE|DICT|INTERRES
    55   27   91 1    
    56   28   29 2    
    57   28   30 1    
    58   30   31 1    
    59   30   32 1    
    60   30   92 1    
    61   31   93 1    
    62   31   94 1    
    63   31   95 1    
    64   32   33 am   BACKBONE|DICT|INTERRES
    65   32   96 1    
    66   33   34 2    
    67   33   35 1    
    68   35   36 1    
    69   35   37 1    
    70   35   97 1    
    71   36   98 1    
    72   36   99 1    
    73   36  100 1    
    74   37   38 am   BACKBONE|DICT|INTERRES
    75   37  101 1    
    76   38   39 2    
    77   38   40 1    
    78   40   41 1    
    79   40   42 1    
    80   40  102 1    
    81   41  103 1    
    82   41  104 1    
    83   41  105 1    
    84   42   43 am   BACKBONE|DICT|INTERRES
    85   42  106 1    
    86   43   44 2    
    87   43   45 1    
    88   45   46 1    
    89   45   49 1    
    90   45  107 1    
    91   46   47 1    
    92   46  108 1    
    93   46  109 1    
    94   47   48 1    
    95   48  110 1    
    96   48  111 1    
    97   49   50 am   BACKBONE|DICT|INTERRES
    98   49  112 1    
    99   50   51 2    
   100   50   52 1    
   101   52   53 1    
   102   52   54 1    
   103   52  113 1    
   104   53  114 1    
   105   53  115 1    
   106   53  116 1    
   107   54   55 am   BACKBONE|DICT|INTERRES
   108   54  117 1    
   109   55   56 2    
   110   55   57 1    
   111   57   58 1    
   112   57   59 1    
   113   57  118 1    
   114   58  119 1    
   115   58  120 1    
   116   58  121 1    
   117   59   60 am   BACKBONE|DICT|INTERRES
   118   59  122 1    
   119   60   61 2    
   120   60   62 1    
   121   62   63 1    
   122   62   64 1    
   123   62  123 1    
   124   63  124 1    
   125   63  125 1    
   126   63  126 1    
   127   64   65 am   BACKBONE|DICT|INTERRES
   128   64  127 1    
   129   65   66 2    
@<TRIPOS>SUBSTRUCTURE
     1 UNK         1 GROUP             0       ****    0 ROOT    
