@<TRIPOS>MOLECULE
3R135
127   129    1
SMALL
USER_CHARGES


@<TRIPOS>ATOM
      1 CA        -80.9717   29.7451  -76.5101 C.3       0 UNK        -0.1998 
      2 C         -80.6110   28.8292  -75.3510 C.2       0 UNK         0.4909 
      3 O         -79.5513   28.2059  -75.3712 O.2       0 UNK        -0.5240 
      4 N         -81.4866   28.7320  -74.3432 N.am      1 UNK        -0.4739 
      5 CA        -81.3053   27.9023  -73.1455 C.3       1 UNK         0.0864 
      6 C6        -81.9892   28.5231  -71.8970 C.3       11 UNK        -0.0881 
      7 S7        -81.4630   30.2416  -71.5575 S.3       11 UNK        -0.2682 
      8 C8        -80.3433   30.0528  -70.1324 C.3       11 UNK         0.0289 
      9 C9        -78.9676   29.5568  -70.5531 C.ar      11 UNK        -0.0687 
     10 C10       -78.6310   28.2072  -70.4145 C.ar      11 UNK        -0.0823 
     11 C11       -77.3754   27.7463  -70.8206 C.ar      11 UNK        -0.0830 
     12 C12       -76.4470   28.6480  -71.3502 C.ar      11 UNK        -0.1021 
     13 C13       -76.7674   30.0010  -71.4848 C.ar      11 UNK        -0.0753 
     14 C14       -78.0292   30.4507  -71.0817 C.ar      11 UNK        -0.0933 
     15 C15       -75.7565   30.9613  -72.0958 C.3       11 UNK         0.0166 
     16 S16       -74.3309   31.2186  -70.9943 S.3       11 UNK        -0.2615 
     17 C17       -73.3130   32.3751  -71.9795 C.3       11 UNK        -0.0865 
     18 CA        -71.9884   31.8099  -72.5793 C.3       10 UNK         0.0862 
     19 C         -71.0086   31.1874  -71.5354 C.2       10 UNK         0.5551 
     20 N         -70.2707   30.1332  -71.8598 N.am      10 UNK        -0.7319 
     21 O         -70.8703   31.7066  -70.4301 O.2       10 UNK        -0.5018 
     22 N         -72.1795   31.0813  -73.8487 N.am      10 UNK        -0.4509 
     23 C         -72.6149   29.8284  -74.0369 C.2       10 UNK         0.4899 
     24 O         -72.9382   29.0632  -73.1274 O.2       10 UNK        -0.4839 
     25 CA        -72.7282   29.3596  -75.5038 C.3       9 UNK         0.0222 
     26 CB        -71.7625   30.0739  -76.4780 C.3       9 UNK        -0.1966 
     27 N         -72.6194   27.9033  -75.6252 N.am      9 UNK        -0.4218 
     28 C         -71.5552   27.1325  -75.3607 C.2       9 UNK         0.5020 
     29 O         -70.4440   27.5673  -75.0517 O.2       9 UNK        -0.5274 
     30 CA        -71.7657   25.6087  -75.4375 C.3       8 UNK         0.0270 
     31 CB        -72.2291   25.0690  -74.0745 C.3       8 UNK        -0.1976 
     32 N         -72.7140   25.1854  -76.4744 N.am      8 UNK        -0.4313 
     33 C         -72.4829   25.2518  -77.7938 C.2       8 UNK         0.5041 
     34 O         -71.4400   25.6855  -78.2852 O.2       8 UNK        -0.5577 
     35 CA        -73.5965   24.7421  -78.7268 C.3       7 UNK         0.0284 
     36 CB        -73.6053   23.2059  -78.7927 C.3       7 UNK        -0.1958 
     37 N         -74.9182   25.2277  -78.3292 N.am      7 UNK        -0.4454 
     38 C         -75.3463   26.4849  -78.5125 C.2       7 UNK         0.5089 
     39 O         -74.7115   27.3442  -79.1247 O.2       7 UNK        -0.5125 
     40 CA        -76.7000   26.8589  -77.8815 C.3       6 UNK         0.0408 
     41 CB        -77.8557   26.5750  -78.8527 C.3       6 UNK        -0.1791 
     42 N         -76.9510   26.1744  -76.6116 N.am      6 UNK        -0.4762 
     43 C         -76.2020   26.3160  -75.5092 C.2       6 UNK         0.5007 
     44 O         -75.2329   27.0667  -75.4380 O.2       6 UNK        -0.5032 
     45 CA        -76.5560   25.4390  -74.2966 C.3       5 UNK         0.0783 
     46 C46       -77.6935   26.0918  -73.4908 C.3       11 UNK        -0.0857 
     47 S47       -78.0182   25.2642  -71.8984 S.3       11 UNK        -0.2512 
     48 C48       -77.0340   26.2658  -70.7347 C.3       11 UNK         0.0225 
     49 N         -76.8716   24.0661  -74.6968 N.am      5 UNK        -0.4615 
     50 C         -76.0015   23.2157  -75.2550 C.2       4 UNK         0.5053 
     51 O         -74.8206   23.4884  -75.4670 O.2       4 UNK        -0.5105 
     52 CA        -76.5554   21.8479  -75.6845 C.3       4 UNK         0.0263 
     53 CB        -76.5877   20.8793  -74.4918 C.3       4 UNK        -0.1981 
     54 N         -77.8934   21.9505  -76.2739 N.am      4 UNK        -0.4224 
     55 C         -78.1542   22.5278  -77.4562 C.2       3 UNK         0.4895 
     56 O         -77.2862   22.9796  -78.2042 O.2       3 UNK        -0.5091 
     57 CA        -79.6392   22.6611  -77.8460 C.3       3 UNK         0.0250 
     58 CB        -80.1542   21.3578  -78.4775 C.3       3 UNK        -0.1996 
     59 N         -80.5075   23.0466  -76.7236 N.am      3 UNK        -0.4254 
     60 C         -80.3865   24.1974  -76.0475 C.2       2 UNK         0.5004 
     61 O         -79.5331   25.0457  -76.3145 O.2       2 UNK        -0.5226 
     62 CA        -81.3287   24.4248  -74.8550 C.3       2 UNK         0.0269 
     63 CB        -81.0157   23.4176  -73.7270 C.3       2 UNK        -0.1926 
     64 N         -81.1349   25.8007  -74.3945 N.am      2 UNK        -0.4687 
     65 C         -81.7832   26.4576  -73.4272 C.2       1 UNK         0.5165 
     66 O         -82.7318   25.9819  -72.8004 O.2       1 UNK        -0.5079 
     67 H67       -80.2195   30.5261  -76.6168 H         1 UNK         0.0900 
     68 H68       -81.0066   29.1761  -77.4388 H         1 UNK         0.0900 
     69 H69       -81.9405   30.2230  -76.3664 H         1 UNK         0.0900 
     70 H70       -82.3489   29.2567  -74.3802 H         1 UNK         0.2959 
     71 H71       -80.2375   27.8384  -72.9214 H         1 UNK         0.1079 
     72 H72       -81.7997   27.9074  -71.0159 H         1 UNK         0.0837 
     73 H73       -83.0733   28.5346  -72.0252 H         1 UNK         0.0837 
     74 H74       -80.7905   29.3870  -69.3926 H         1 UNK         0.0685 
     75 H75       -80.2399   31.0214  -69.6412 H         1 UNK         0.0685 
     76 H76       -79.3528   27.5083  -70.0143 H         1 UNK         0.1434 
     77 H77       -75.4758   28.2997  -71.6775 H         1 UNK         0.1329 
     78 H78       -78.2898   31.4946  -71.1913 H         1 UNK         0.1335 
     79 H79       -76.2226   31.9240  -72.3113 H         1 UNK         0.0680 
     80 H80       -75.4119   30.5607  -73.0500 H         1 UNK         0.0680 
     81 H81       -73.0720   33.2133  -71.3232 H         1 UNK         0.1032 
     82 H82       -73.9200   32.8106  -72.7743 H         1 UNK         0.1032 
     83 H83       -71.4374   32.6919  -72.9082 H         1 UNK         0.0461 
     84 H84       -69.6268   29.7526  -71.1848 H         1 UNK         0.3453 
     85 H85       -70.3932   29.6843  -72.7540 H         1 UNK         0.3453 
     86 H86       -71.9189   31.6034  -74.6725 H         1 UNK         0.2984 
     87 H87       -73.7456   29.5993  -75.8161 H         1 UNK         0.0554 
     88 H88       -72.0044   31.1323  -76.5782 H         1 UNK         0.0847 
     89 H89       -71.8261   29.6428  -77.4774 H         1 UNK         0.0847 
     90 H90       -70.7241   29.9995  -76.1529 H         1 UNK         0.0847 
     91 H91       -73.5161   27.4336  -75.7477 H         1 UNK         0.3141 
     92 H92       -70.7990   25.1564  -75.6684 H         1 UNK         0.0743 
     93 H93       -71.5192   25.3315  -73.2889 H         1 UNK         0.0784 
     94 H94       -73.1975   25.4807  -73.7885 H         1 UNK         0.0784 
     95 H95       -72.3158   23.9823  -74.0848 H         1 UNK         0.0784 
     96 H96       -73.5746   24.7472  -76.1532 H         1 UNK         0.3213 
     97 H97       -73.3845   25.1167  -79.7309 H         1 UNK         0.0855 
     98 H98       -73.8111   22.7552  -77.8218 H         1 UNK         0.0814 
     99 H99       -72.6398   22.8262  -79.1293 H         1 UNK         0.0814 
    100 H100      -74.3586   22.8444  -79.4931 H         1 UNK         0.0814 
    101 H101      -75.5260   24.5794  -77.8444 H         1 UNK         0.3105 
    102 H102      -76.6849   27.9314  -77.6770 H         1 UNK         0.0547 
    103 H103      -77.7113   27.1012  -79.7970 H         1 UNK         0.0837 
    104 H104      -78.8087   26.9050  -78.4380 H         1 UNK         0.0837 
    105 H105      -77.9406   25.5118  -79.0791 H         1 UNK         0.0837 
    106 H106      -77.7913   25.6005  -76.5595 H         1 UNK         0.3020 
    107 H107      -75.6683   25.4022  -73.6616 H         1 UNK         0.1245 
    108 H108      -78.6095   26.0608  -74.0709 H         1 UNK         0.0781 
    109 H109      -77.5010   27.1530  -73.3378 H         1 UNK         0.0781 
    110 H110      -75.9740   26.0994  -70.9335 H         1 UNK         0.0836 
    111 H111      -77.2140   25.9110  -69.7189 H         1 UNK         0.0836 
    112 H112      -77.8291   23.7760  -74.5761 H         1 UNK         0.3022 
    113 H113      -75.8804   21.4389  -76.4397 H         1 UNK         0.0747 
    114 H114      -76.9093   19.8837  -74.7982 H         1 UNK         0.0793 
    115 H115      -75.5961   20.7754  -74.0488 H         1 UNK         0.0793 
    116 H116      -77.2611   21.2235  -73.7056 H         1 UNK         0.0793 
    117 H117      -78.6660   21.5950  -75.7302 H         1 UNK         0.3047 
    118 H118      -79.7052   23.4507  -78.5979 H         1 UNK         0.0822 
    119 H119      -81.1715   21.4734  -78.8519 H         1 UNK         0.0807 
    120 H120      -80.1496   20.5312  -77.7660 H         1 UNK         0.0807 
    121 H121      -79.5320   21.0627  -79.3238 H         1 UNK         0.0807 
    122 H122      -81.2291   22.3914  -76.4578 H         1 UNK         0.2946 
    123 H123      -82.3603   24.3073  -75.1924 H         1 UNK         0.1144 
    124 H124      -79.9902   23.5167  -73.3713 H         1 UNK         0.0793 
    125 H125      -81.1461   22.3888  -74.0638 H         1 UNK         0.0793 
    126 H126      -81.6764   23.5496  -72.8707 H         1 UNK         0.0793 
    127 H127      -80.4107   26.2975  -74.9098 H         1 UNK         0.2896 
@<TRIPOS>BOND
     1    1    2 1    
     2    1   67 1    
     3    1   68 1    
     4    1   69 1    
     5    2    3 2    
     6    2    4 am   BACKBONE|DICT|INTERRES
     7    4    5 1    
     8    4   70 1    
     9    5    6 1    
    10    5   65 1    
    11    5   71 1    
    12    6    7 1    
    13    6   72 1    
    14    6   73 1    
    15    7    8 1    
    16    8    9 1    
    17    8   74 1    
    18    8   75 1    
    19    9   10 ar   
    20    9   14 ar   
    21   10   11 ar   
    22   10   76 1    
    23   11   12 ar   
    24   11   48 1    
    25   12   13 ar   
    26   12   77 1    
    27   13   14 ar   
    28   13   15 1    
    29   14   78 1    
    30   15   16 1    
    31   15   79 1    
    32   15   80 1    
    33   16   17 1    
    34   17   18 1    
    35   17   81 1    
    36   17   82 1    
    37   18   19 1    
    38   18   22 1    
    39   18   83 1    
    40   19   20 am   BACKBONE|DICT|INTERRES
    41   19   21 2    
    42   20   84 1    
    43   20   85 1    
    44   22   23 am   BACKBONE|DICT|INTERRES
    45   22   86 1    
    46   23   24 2    
    47   23   25 1    
    48   25   26 1    
    49   25   27 1    
    50   25   87 1    
    51   26   88 1    
    52   26   89 1    
    53   26   90 1    
    54   27   28 am   BACKBONE|DICT|INTERRES
    55   27   91 1    
    56   28   29 2    
    57   28   30 1    
    58   30   31 1    
    59   30   32 1    
    60   30   92 1    
    61   31   93 1    
    62   31   94 1    
    63   31   95 1    
    64   32   33 am   BACKBONE|DICT|INTERRES
    65   32   96 1    
    66   33   34 2    
    67   33   35 1    
    68   35   36 1    
    69   35   37 1    
    70   35   97 1    
    71   36   98 1    
    72   36   99 1    
    73   36  100 1    
    74   37   38 am   BACKBONE|DICT|INTERRES
    75   37  101 1    
    76   38   39 2    
    77   38   40 1    
    78   40   41 1    
    79   40   42 1    
    80   40  102 1    
    81   41  103 1    
    82   41  104 1    
    83   41  105 1    
    84   42   43 am   BACKBONE|DICT|INTERRES
    85   42  106 1    
    86   43   44 2    
    87   43   45 1    
    88   45   46 1    
    89   45   49 1    
    90   45  107 1    
    91   46   47 1    
    92   46  108 1    
    93   46  109 1    
    94   47   48 1    
    95   48  110 1    
    96   48  111 1    
    97   49   50 am   BACKBONE|DICT|INTERRES
    98   49  112 1    
    99   50   51 2    
   100   50   52 1    
   101   52   53 1    
   102   52   54 1    
   103   52  113 1    
   104   53  114 1    
   105   53  115 1    
   106   53  116 1    
   107   54   55 am   BACKBONE|DICT|INTERRES
   108   54  117 1    
   109   55   56 2    
   110   55   57 1    
   111   57   58 1    
   112   57   59 1    
   113   57  118 1    
   114   58  119 1    
   115   58  120 1    
   116   58  121 1    
   117   59   60 am   BACKBONE|DICT|INTERRES
   118   59  122 1    
   119   60   61 2    
   120   60   62 1    
   121   62   63 1    
   122   62   64 1    
   123   62  123 1    
   124   63  124 1    
   125   63  125 1    
   126   63  126 1    
   127   64   65 am   BACKBONE|DICT|INTERRES
   128   64  127 1    
   129   65   66 2    
@<TRIPOS>SUBSTRUCTURE
     1 UNK         1 GROUP             0       ****    0 ROOT    
