@<TRIPOS>MOLECULE
3R135
127   129    1
SMALL
USER_CHARGES


@<TRIPOS>ATOM
      1 CA        -84.4427   22.2510  -71.8692 C.3       0 UNK        -0.1998 
      2 C         -84.3516   23.7679  -71.9442 C.2       0 UNK         0.4909 
      3 O         -85.3686   24.4498  -71.8105 O.2       0 UNK        -0.5240 
      4 N         -83.1407   24.3018  -72.1484 N.am      1 UNK        -0.4739 
      5 CA        -82.8814   25.7336  -72.3235 C.3       1 UNK         0.0864 
      6 C6        -81.3784   26.0518  -72.1211 C.3       11 UNK        -0.0881 
      7 S7        -81.0687   27.8302  -71.8392 S.3       11 UNK        -0.2682 
      8 C8        -79.8974   27.7964  -70.4476 C.3       11 UNK         0.0289 
      9 C9        -78.4783   27.4872  -70.9049 C.ar      11 UNK        -0.0687 
     10 C10       -78.0059   26.1728  -70.9197 C.ar      11 UNK        -0.0823 
     11 C11       -76.6870   25.8962  -71.2908 C.ar      11 UNK        -0.0830 
     12 C12       -75.8375   26.9468  -71.6533 C.ar      11 UNK        -0.1021 
     13 C13       -76.2966   28.2736  -71.6462 C.ar      11 UNK        -0.0753 
     14 C14       -77.6213   28.5268  -71.2755 C.ar      11 UNK        -0.0933 
     15 C15       -75.4170   29.4769  -71.9984 C.3       11 UNK         0.0166 
     16 S16       -73.7143   29.0918  -72.5237 S.3       11 UNK        -0.2615 
     17 C17       -73.0798   30.7541  -72.9361 C.3       11 UNK        -0.0865 
     18 CA        -73.0665   31.0322  -74.4626 C.3       10 UNK         0.0862 
     19 C         -72.5890   32.4823  -74.7648 C.2       10 UNK         0.5551 
     20 N         -71.5003   32.6873  -75.4963 N.am      10 UNK        -0.7319 
     21 O         -73.2243   33.4396  -74.3300 O.2       10 UNK        -0.5018 
     22 N         -72.3412   29.9806  -75.1922 N.am      10 UNK        -0.4509 
     23 C         -72.5143   29.6573  -76.4770 C.2       10 UNK         0.4899 
     24 O         -73.2843   30.2508  -77.2319 O.2       10 UNK        -0.4839 
     25 CA        -71.7241   28.4510  -77.0181 C.3       9 UNK         0.0222 
     26 CB        -70.4330   28.8994  -77.7295 C.3       9 UNK        -0.1966 
     27 N         -71.4644   27.3917  -76.0308 N.am      9 UNK        -0.4218 
     28 C         -70.6477   27.3937  -74.9658 C.2       9 UNK         0.5020 
     29 O         -69.9665   28.3616  -74.6268 O.2       9 UNK        -0.5274 
     30 CA        -70.6022   26.1152  -74.1127 C.3       8 UNK         0.0270 
     31 CB        -71.6102   26.2047  -72.9559 C.3       8 UNK        -0.1976 
     32 N         -70.8921   24.9164  -74.9015 N.am      8 UNK        -0.4313 
     33 C         -69.9664   24.1091  -75.4365 C.2       8 UNK         0.5041 
     34 O         -68.7530   24.2740  -75.3034 O.2       8 UNK        -0.5577 
     35 CA        -70.4712   22.9005  -76.2480 C.3       7 UNK         0.0284 
     36 CB        -70.5235   21.6456  -75.3611 C.3       7 UNK        -0.1958 
     37 N         -71.7880   23.1167  -76.8531 N.am      7 UNK        -0.4454 
     38 C         -72.0192   23.9259  -77.8957 C.2       7 UNK         0.5089 
     39 O         -71.1363   24.5315  -78.5030 O.2       7 UNK        -0.5125 
     40 CA        -73.4887   24.1167  -78.3157 C.3       6 UNK         0.0408 
     41 CB        -73.8585   23.1243  -79.4294 C.3       6 UNK        -0.1791 
     42 N         -74.4669   24.0096  -77.2230 N.am      6 UNK        -0.4762 
     43 C         -74.4859   24.7842  -76.1285 C.2       6 UNK         0.5007 
     44 O         -73.5956   25.5891  -75.8499 O.2       6 UNK        -0.5032 
     45 CA        -75.6741   24.6223  -75.1616 C.3       5 UNK         0.0783 
     46 C46       -75.2106   23.9264  -73.8601 C.3       11 UNK        -0.0857 
     47 S47       -76.6012   23.5296  -72.7481 S.3       11 UNK        -0.2512 
     48 C48       -76.1756   24.4631  -71.2433 C.3       11 UNK         0.0225 
     49 N         -76.2908   25.9235  -74.8929 N.am      5 UNK        -0.4615 
     50 C         -76.9043   26.6846  -75.8061 C.2       4 UNK         0.5053 
     51 O         -77.0543   26.3626  -76.9876 O.2       4 UNK        -0.5105 
     52 CA        -77.4029   28.0549  -75.3187 C.3       4 UNK         0.0263 
     53 CB        -76.3237   29.1215  -75.5633 C.3       4 UNK        -0.1981 
     54 N         -78.6461   28.4706  -75.9736 N.am      4 UNK        -0.4224 
     55 C         -79.8121   27.8200  -75.8722 C.2       3 UNK         0.4895 
     56 O         -79.9739   26.7897  -75.2139 O.2       3 UNK        -0.5091 
     57 CA        -80.9975   28.4155  -76.6402 C.3       3 UNK         0.0250 
     58 CB        -81.0222   27.9251  -78.0983 C.3       3 UNK        -0.1996 
     59 N         -82.2200   28.0049  -75.9602 N.am      3 UNK        -0.4254 
     60 C         -83.3489   28.7098  -75.8564 C.2       2 UNK         0.5004 
     61 O         -83.5356   29.7808  -76.4355 O.2       2 UNK        -0.5226 
     62 CA        -84.4505   28.1636  -74.9259 C.3       2 UNK         0.0269 
     63 CB        -85.5054   27.3633  -75.7161 C.3       2 UNK        -0.1926 
     64 N         -83.9545   27.4173  -73.7550 N.am      2 UNK        -0.4687 
     65 C         -83.3804   26.2055  -73.7066 C.2       1 UNK         0.5165 
     66 O         -83.1925   25.4931  -74.6957 O.2       1 UNK        -0.5079 
     67 H67       -83.4686   21.7773  -71.9898 H         1 UNK         0.0900 
     68 H68       -85.1011   21.8760  -72.6523 H         1 UNK         0.0900 
     69 H69       -84.8506   21.9466  -70.9057 H         1 UNK         0.0900 
     70 H70       -82.3482   23.6918  -72.2892 H         1 UNK         0.2959 
     71 H71       -83.4500   26.2593  -71.5523 H         1 UNK         0.1079 
     72 H72       -81.0103   25.4985  -71.2566 H         1 UNK         0.0837 
     73 H73       -80.7785   25.7089  -72.9659 H         1 UNK         0.0837 
     74 H74       -80.2264   27.0779  -69.6953 H         1 UNK         0.0685 
     75 H75       -79.9176   28.7705  -69.9566 H         1 UNK         0.0685 
     76 H76       -78.6592   25.3633  -70.6250 H         1 UNK         0.1434 
     77 H77       -74.8151   26.7190  -71.9177 H         1 UNK         0.1329 
     78 H78       -77.9858   29.5451  -71.2589 H         1 UNK         0.1335 
     79 H79       -75.3652   30.1326  -71.1280 H         1 UNK         0.0680 
     80 H80       -75.9028   30.0486  -72.7897 H         1 UNK         0.0680 
     81 H81       -73.6741   31.5052  -72.4120 H         1 UNK         0.1032 
     82 H82       -72.0697   30.8373  -72.5307 H         1 UNK         0.1032 
     83 H83       -74.1036   30.9967  -74.8004 H         1 UNK         0.0461 
     84 H84       -70.9776   31.9053  -75.8566 H         1 UNK         0.3453 
     85 H85       -71.2017   33.6303  -75.6893 H         1 UNK         0.3453 
     86 H86       -71.6418   29.4667  -74.6685 H         1 UNK         0.2984 
     87 H87       -72.3620   27.9827  -77.7695 H         1 UNK         0.0554 
     88 H88       -69.9099   28.0507  -78.1704 H         1 UNK         0.0847 
     89 H89       -69.7440   29.4034  -77.0514 H         1 UNK         0.0847 
     90 H90       -70.6578   29.5969  -78.5374 H         1 UNK         0.0847 
     91 H91       -72.0905   26.5937  -76.1143 H         1 UNK         0.3141 
     92 H92       -69.6018   26.0417  -73.6808 H         1 UNK         0.0743 
     93 H93       -71.3955   27.0643  -72.3197 H         1 UNK         0.0784 
     94 H94       -72.6329   26.3140  -73.3185 H         1 UNK         0.0784 
     95 H95       -71.5707   25.3174  -72.3240 H         1 UNK         0.0784 
     96 H96       -71.8675   24.7442  -75.1132 H         1 UNK         0.3213 
     97 H97       -69.7516   22.7214  -77.0502 H         1 UNK         0.0855 
     98 H98       -71.2357   21.7568  -74.5424 H         1 UNK         0.0814 
     99 H99       -69.5477   21.4415  -74.9176 H         1 UNK         0.0814 
    100 H100      -70.8056   20.7635  -75.9363 H         1 UNK         0.0814 
    101 H101      -72.5750   22.6449  -76.4318 H         1 UNK         0.3105 
    102 H102      -73.5744   25.1266  -78.7226 H         1 UNK         0.0547 
    103 H103      -73.8329   22.0924  -79.0771 H         1 UNK         0.0837 
    104 H104      -74.8555   23.3215  -79.8237 H         1 UNK         0.0837 
    105 H105      -73.1627   23.1994  -80.2665 H         1 UNK         0.0837 
    106 H106      -75.2293   23.3636  -77.3734 H         1 UNK         0.3020 
    107 H107      -76.4297   23.9959  -75.6409 H         1 UNK         0.1245 
    108 H108      -74.4760   24.5407  -73.3363 H         1 UNK         0.0781 
    109 H109      -74.7064   22.9854  -74.0890 H         1 UNK         0.0781 
    110 H110      -75.0981   24.4384  -71.0734 H         1 UNK         0.0836 
    111 H111      -76.6187   23.9530  -70.3865 H         1 UNK         0.0836 
    112 H112      -76.2159   26.2597  -73.9435 H         1 UNK         0.3022 
    113 H113      -77.6018   27.9921  -74.2468 H         1 UNK         0.0747 
    114 H114      -76.6207   30.0913  -75.1643 H         1 UNK         0.0793 
    115 H115      -75.3864   28.8430  -75.0801 H         1 UNK         0.0793 
    116 H116      -76.1108   29.2453  -76.6260 H         1 UNK         0.0793 
    117 H117      -78.5916   29.2849  -76.5675 H         1 UNK         0.3047 
    118 H118      -80.9152   29.5045  -76.6179 H         1 UNK         0.0822 
    119 H119      -80.1119   28.2139  -78.6251 H         1 UNK         0.0807 
    120 H120      -81.8633   28.3511  -78.6455 H         1 UNK         0.0807 
    121 H121      -81.1017   26.8386  -78.1542 H         1 UNK         0.0807 
    122 H122      -82.1432   27.1310  -75.4481 H         1 UNK         0.2946 
    123 H123      -84.9548   29.0405  -74.5157 H         1 UNK         0.1144 
    124 H124      -85.9619   27.9838  -76.4884 H         1 UNK         0.0793 
    125 H125      -86.3071   27.0125  -75.0663 H         1 UNK         0.0793 
    126 H126      -85.0737   26.4964  -76.2167 H         1 UNK         0.0793 
    127 H127      -84.0089   27.9307  -72.8853 H         1 UNK         0.2896 
@<TRIPOS>BOND
     1    1    2 1    
     2    1   67 1    
     3    1   68 1    
     4    1   69 1    
     5    2    3 2    
     6    2    4 am   BACKBONE|DICT|INTERRES
     7    4    5 1    
     8    4   70 1    
     9    5    6 1    
    10    5   65 1    
    11    5   71 1    
    12    6    7 1    
    13    6   72 1    
    14    6   73 1    
    15    7    8 1    
    16    8    9 1    
    17    8   74 1    
    18    8   75 1    
    19    9   10 ar   
    20    9   14 ar   
    21   10   11 ar   
    22   10   76 1    
    23   11   12 ar   
    24   11   48 1    
    25   12   13 ar   
    26   12   77 1    
    27   13   14 ar   
    28   13   15 1    
    29   14   78 1    
    30   15   16 1    
    31   15   79 1    
    32   15   80 1    
    33   16   17 1    
    34   17   18 1    
    35   17   81 1    
    36   17   82 1    
    37   18   19 1    
    38   18   22 1    
    39   18   83 1    
    40   19   20 am   BACKBONE|DICT|INTERRES
    41   19   21 2    
    42   20   84 1    
    43   20   85 1    
    44   22   23 am   BACKBONE|DICT|INTERRES
    45   22   86 1    
    46   23   24 2    
    47   23   25 1    
    48   25   26 1    
    49   25   27 1    
    50   25   87 1    
    51   26   88 1    
    52   26   89 1    
    53   26   90 1    
    54   27   28 am   BACKBONE|DICT|INTERRES
    55   27   91 1    
    56   28   29 2    
    57   28   30 1    
    58   30   31 1    
    59   30   32 1    
    60   30   92 1    
    61   31   93 1    
    62   31   94 1    
    63   31   95 1    
    64   32   33 am   BACKBONE|DICT|INTERRES
    65   32   96 1    
    66   33   34 2    
    67   33   35 1    
    68   35   36 1    
    69   35   37 1    
    70   35   97 1    
    71   36   98 1    
    72   36   99 1    
    73   36  100 1    
    74   37   38 am   BACKBONE|DICT|INTERRES
    75   37  101 1    
    76   38   39 2    
    77   38   40 1    
    78   40   41 1    
    79   40   42 1    
    80   40  102 1    
    81   41  103 1    
    82   41  104 1    
    83   41  105 1    
    84   42   43 am   BACKBONE|DICT|INTERRES
    85   42  106 1    
    86   43   44 2    
    87   43   45 1    
    88   45   46 1    
    89   45   49 1    
    90   45  107 1    
    91   46   47 1    
    92   46  108 1    
    93   46  109 1    
    94   47   48 1    
    95   48  110 1    
    96   48  111 1    
    97   49   50 am   BACKBONE|DICT|INTERRES
    98   49  112 1    
    99   50   51 2    
   100   50   52 1    
   101   52   53 1    
   102   52   54 1    
   103   52  113 1    
   104   53  114 1    
   105   53  115 1    
   106   53  116 1    
   107   54   55 am   BACKBONE|DICT|INTERRES
   108   54  117 1    
   109   55   56 2    
   110   55   57 1    
   111   57   58 1    
   112   57   59 1    
   113   57  118 1    
   114   58  119 1    
   115   58  120 1    
   116   58  121 1    
   117   59   60 am   BACKBONE|DICT|INTERRES
   118   59  122 1    
   119   60   61 2    
   120   60   62 1    
   121   62   63 1    
   122   62   64 1    
   123   62  123 1    
   124   63  124 1    
   125   63  125 1    
   126   63  126 1    
   127   64   65 am   BACKBONE|DICT|INTERRES
   128   64  127 1    
   129   65   66 2    
@<TRIPOS>SUBSTRUCTURE
     1 UNK         1 GROUP             0       ****    0 ROOT    
