@<TRIPOS>MOLECULE
3R135
127   129    1
SMALL
USER_CHARGES


@<TRIPOS>ATOM
      1 CA        -78.6841   28.3217  -68.2569 C.3       0 UNK        -0.1998 
      2 C         -79.5924   27.4685  -69.1293 C.2       0 UNK         0.4909 
      3 O         -80.3773   26.6765  -68.6072 O.2       0 UNK        -0.5240 
      4 N         -79.4892   27.6226  -70.4558 N.am      1 UNK        -0.4739 
      5 CA        -80.2840   26.8842  -71.4482 C.3       1 UNK         0.0864 
      6 C6        -80.3126   27.6118  -72.8122 C.3       11 UNK        -0.0881 
      7 S7        -81.1901   29.2110  -72.7336 S.3       11 UNK        -0.2682 
      8 C8        -79.8292   30.4239  -72.7518 C.3       11 UNK         0.0289 
      9 C9        -78.9701   30.3223  -74.0050 C.ar      11 UNK        -0.0687 
     10 C10       -79.5251   30.5651  -75.2650 C.ar      11 UNK        -0.0823 
     11 C11       -78.7425   30.4581  -76.4185 C.ar      11 UNK        -0.0830 
     12 C12       -77.3890   30.1294  -76.3038 C.ar      11 UNK        -0.1021 
     13 C13       -76.8281   29.8684  -75.0508 C.ar      11 UNK        -0.0753 
     14 C14       -77.6190   29.9784  -73.9040 C.ar      11 UNK        -0.0933 
     15 C15       -75.3660   29.4730  -74.9431 C.3       11 UNK         0.0166 
     16 S16       -75.1348   27.6701  -75.0946 S.3       11 UNK        -0.2615 
     17 C17       -75.3603   27.0796  -73.3757 C.3       11 UNK        -0.0865 
     18 CA        -74.0257   26.9374  -72.5909 C.3       10 UNK         0.0862 
     19 C         -73.2117   25.6833  -73.0343 C.2       10 UNK         0.5551 
     20 N         -72.0426   25.8209  -73.6505 N.am      10 UNK        -0.7319 
     21 O         -73.6411   24.5598  -72.7916 O.2       10 UNK        -0.5018 
     22 N         -73.2775   28.1993  -72.6217 N.am      10 UNK        -0.4509 
     23 C         -72.2626   28.5553  -71.8275 C.2       10 UNK         0.4899 
     24 O         -71.9107   27.9159  -70.8355 O.2       10 UNK        -0.4839 
     25 CA        -71.5155   29.8485  -72.2317 C.3       9 UNK         0.0222 
     26 CB        -70.0507   29.8569  -71.7449 C.3       9 UNK        -0.1966 
     27 N         -71.5862   30.1472  -73.6755 N.am      9 UNK        -0.4218 
     28 C         -71.1735   29.3510  -74.6738 C.2       9 UNK         0.5020 
     29 O         -70.6250   28.2579  -74.5013 O.2       9 UNK        -0.5274 
     30 CA        -71.4537   29.8290  -76.1040 C.3       8 UNK         0.0270 
     31 CB        -70.3115   30.7202  -76.6183 C.3       8 UNK        -0.1976 
     32 N         -71.5502   28.6346  -76.9362 N.am      8 UNK        -0.4313 
     33 C         -72.5653   28.2972  -77.7366 C.2       8 UNK         0.5041 
     34 O         -73.5010   29.0484  -78.0155 O.2       8 UNK        -0.5577 
     35 CA        -72.5587   26.8678  -78.3014 C.3       7 UNK         0.0284 
     36 CB        -71.3151   26.0353  -77.8973 C.3       7 UNK        -0.1958 
     37 N         -73.7886   26.2067  -77.8669 N.am      7 UNK        -0.4454 
     38 C         -74.2640   25.0502  -78.3424 C.2       7 UNK         0.5089 
     39 O         -73.7338   24.4090  -79.2509 O.2       7 UNK        -0.5125 
     40 CA        -75.5454   24.5030  -77.6910 C.3       6 UNK         0.0408 
     41 CB        -75.2124   23.7659  -76.3852 C.3       6 UNK        -0.1791 
     42 N         -76.5682   25.5148  -77.4218 N.am      6 UNK        -0.4762 
     43 C         -77.2146   26.2325  -78.3496 C.2       6 UNK         0.5007 
     44 O         -76.9707   26.1661  -79.5559 O.2       6 UNK        -0.5032 
     45 CA        -78.3753   27.1140  -77.8428 C.3       5 UNK         0.0783 
     46 C46       -78.8679   28.1189  -78.9187 C.3       11 UNK        -0.0857 
     47 S47       -80.2428   29.1811  -78.3555 S.3       11 UNK        -0.2512 
     48 C48       -79.3706   30.6758  -77.7859 C.3       11 UNK         0.0225 
     49 N         -79.4540   26.2584  -77.3396 N.am      5 UNK        -0.4615 
     50 C         -79.4853   25.7234  -76.1135 C.2       4 UNK         0.5053 
     51 O         -78.6241   25.9474  -75.2616 O.2       4 UNK        -0.5105 
     52 CA        -80.6652   24.7951  -75.7639 C.3       4 UNK         0.0263 
     53 CB        -81.5081   24.3400  -76.9785 C.3       4 UNK        -0.1981 
     54 N         -80.2141   23.6510  -74.9638 N.am      4 UNK        -0.4224 
     55 C         -79.3829   22.6686  -75.3500 C.2       3 UNK         0.4895 
     56 O         -78.9446   22.5445  -76.4953 O.2       3 UNK        -0.5091 
     57 CA        -78.9914   21.6437  -74.2634 C.3       3 UNK         0.0250 
     58 CB        -77.7888   20.7594  -74.6595 C.3       3 UNK        -0.1996 
     59 N         -78.7833   22.2583  -72.9453 N.am      3 UNK        -0.4254 
     60 C         -77.8806   23.1990  -72.6260 C.2       2 UNK         0.5004 
     61 O         -77.0239   23.6342  -73.3944 O.2       2 UNK        -0.5226 
     62 CA        -77.9784   23.7737  -71.2019 C.3       2 UNK         0.0269 
     63 CB        -76.5943   23.8547  -70.5340 C.3       2 UNK        -0.1926 
     64 N         -78.5921   25.1042  -71.1831 N.am      2 UNK        -0.4687 
     65 C         -79.8224   25.4191  -71.6191 C.2       1 UNK         0.5165 
     66 O         -80.5981   24.6036  -72.1232 O.2       1 UNK        -0.5079 
     67 H67       -78.0473   28.9787  -68.8492 H         1 UNK         0.0900 
     68 H68       -79.2812   28.9417  -67.5887 H         1 UNK         0.0900 
     69 H69       -78.0422   27.6852  -67.6485 H         1 UNK         0.0900 
     70 H70       -78.8378   28.2967  -70.8290 H         1 UNK         0.2959 
     71 H71       -81.3114   26.8304  -71.0797 H         1 UNK         0.1079 
     72 H72       -80.8437   27.0110  -73.5505 H         1 UNK         0.0837 
     73 H73       -79.3033   27.7385  -73.2065 H         1 UNK         0.0837 
     74 H74       -79.2267   30.2971  -71.8516 H         1 UNK         0.0685 
     75 H75       -80.2537   31.4271  -72.6951 H         1 UNK         0.0685 
     76 H76       -80.5741   30.8153  -75.3480 H         1 UNK         0.1434 
     77 H77       -76.7769   30.0432  -77.1917 H         1 UNK         0.1329 
     78 H78       -77.1838   29.7909  -72.9328 H         1 UNK         0.1335 
     79 H79       -74.9466   29.8410  -74.0069 H         1 UNK         0.0680 
     80 H80       -74.8017   29.9616  -75.7383 H         1 UNK         0.0680 
     81 H81       -76.0271   27.7591  -72.8466 H         1 UNK         0.1032 
     82 H82       -75.8944   26.1272  -73.4069 H         1 UNK         0.1032 
     83 H83       -74.2883   26.7560  -71.5469 H         1 UNK         0.0461 
     84 H84       -71.6498   26.7363  -73.8434 H         1 UNK         0.3453 
     85 H85       -71.5310   24.9942  -73.9115 H         1 UNK         0.3453 
     86 H86       -73.4656   28.7759  -73.4261 H         1 UNK         0.2984 
     87 H87       -72.0345   30.6643  -71.7266 H         1 UNK         0.0554 
     88 H88       -69.5440   30.7804  -72.0248 H         1 UNK         0.0847 
     89 H89       -69.4818   29.0236  -72.1587 H         1 UNK         0.0847 
     90 H90       -69.9973   29.7775  -70.6584 H         1 UNK         0.0847 
     91 H91       -72.0152   31.0313  -73.9155 H         1 UNK         0.3141 
     92 H92       -72.3920   30.3870  -76.1193 H         1 UNK         0.0743 
     93 H93       -70.2172   31.6245  -76.0156 H         1 UNK         0.0784 
     94 H94       -69.3506   30.2044  -76.5876 H         1 UNK         0.0784 
     95 H95       -70.4894   31.0334  -77.6472 H         1 UNK         0.0784 
     96 H96       -70.8791   27.9172  -76.6911 H         1 UNK         0.3213 
     97 H97       -72.5809   26.9577  -79.3894 H         1 UNK         0.0855 
     98 H98       -71.2744   25.8597  -76.8212 H         1 UNK         0.0814 
     99 H99       -70.3897   26.5293  -78.1966 H         1 UNK         0.0814 
    100 H100      -71.3103   25.0608  -78.3851 H         1 UNK         0.0814 
    101 H101      -74.3186   26.6957  -77.1543 H         1 UNK         0.3105 
    102 H102      -75.9816   23.7784  -78.3818 H         1 UNK         0.0547 
    103 H103      -74.4692   22.9853  -76.5514 H         1 UNK         0.0837 
    104 H104      -74.8150   24.4411  -75.6259 H         1 UNK         0.0837 
    105 H105      -76.0989   23.2873  -75.9701 H         1 UNK         0.0837 
    106 H106      -76.8778   25.6067  -76.4590 H         1 UNK         0.3020 
    107 H107      -77.9798   27.6897  -77.0061 H         1 UNK         0.1245 
    108 H108      -79.2154   27.5850  -79.8052 H         1 UNK         0.0781 
    109 H109      -78.0439   28.7510  -79.2547 H         1 UNK         0.0781 
    110 H110      -80.0845   31.4989  -77.7302 H         1 UNK         0.0836 
    111 H111      -78.6204   30.9765  -78.5190 H         1 UNK         0.0836 
    112 H112      -80.1838   26.0255  -77.9963 H         1 UNK         0.3022 
    113 H113      -81.3235   25.3711  -75.1139 H         1 UNK         0.0747 
    114 H114      -82.2957   23.6517  -76.6714 H         1 UNK         0.0793 
    115 H115      -82.0000   25.1869  -77.4584 H         1 UNK         0.0793 
    116 H116      -80.9053   23.8342  -77.7336 H         1 UNK         0.0793 
    117 H117      -80.4425   23.7091  -73.9762 H         1 UNK         0.3047 
    118 H118      -79.8549   20.9852  -74.1576 H         1 UNK         0.0822 
    119 H119      -76.8842   21.3472  -74.8132 H         1 UNK         0.0807 
    120 H120      -77.9869   20.2200  -75.5865 H         1 UNK         0.0807 
    121 H121      -77.5761   20.0146  -73.8927 H         1 UNK         0.0807 
    122 H122      -79.4621   22.0015  -72.2414 H         1 UNK         0.2946 
    123 H123      -78.6026   23.1107  -70.5987 H         1 UNK         0.1144 
    124 H124      -76.1037   22.8805  -70.5356 H         1 UNK         0.0793 
    125 H125      -76.6705   24.1774  -69.4955 H         1 UNK         0.0793 
    126 H126      -75.9340   24.5494  -71.0550 H         1 UNK         0.0793 
    127 H127      -78.0347   25.8487  -70.7926 H         1 UNK         0.2896 
@<TRIPOS>BOND
     1    1    2 1    
     2    1   67 1    
     3    1   68 1    
     4    1   69 1    
     5    2    3 2    
     6    2    4 am   BACKBONE|DICT|INTERRES
     7    4    5 1    
     8    4   70 1    
     9    5    6 1    
    10    5   65 1    
    11    5   71 1    
    12    6    7 1    
    13    6   72 1    
    14    6   73 1    
    15    7    8 1    
    16    8    9 1    
    17    8   74 1    
    18    8   75 1    
    19    9   10 ar   
    20    9   14 ar   
    21   10   11 ar   
    22   10   76 1    
    23   11   12 ar   
    24   11   48 1    
    25   12   13 ar   
    26   12   77 1    
    27   13   14 ar   
    28   13   15 1    
    29   14   78 1    
    30   15   16 1    
    31   15   79 1    
    32   15   80 1    
    33   16   17 1    
    34   17   18 1    
    35   17   81 1    
    36   17   82 1    
    37   18   19 1    
    38   18   22 1    
    39   18   83 1    
    40   19   20 am   BACKBONE|DICT|INTERRES
    41   19   21 2    
    42   20   84 1    
    43   20   85 1    
    44   22   23 am   BACKBONE|DICT|INTERRES
    45   22   86 1    
    46   23   24 2    
    47   23   25 1    
    48   25   26 1    
    49   25   27 1    
    50   25   87 1    
    51   26   88 1    
    52   26   89 1    
    53   26   90 1    
    54   27   28 am   BACKBONE|DICT|INTERRES
    55   27   91 1    
    56   28   29 2    
    57   28   30 1    
    58   30   31 1    
    59   30   32 1    
    60   30   92 1    
    61   31   93 1    
    62   31   94 1    
    63   31   95 1    
    64   32   33 am   BACKBONE|DICT|INTERRES
    65   32   96 1    
    66   33   34 2    
    67   33   35 1    
    68   35   36 1    
    69   35   37 1    
    70   35   97 1    
    71   36   98 1    
    72   36   99 1    
    73   36  100 1    
    74   37   38 am   BACKBONE|DICT|INTERRES
    75   37  101 1    
    76   38   39 2    
    77   38   40 1    
    78   40   41 1    
    79   40   42 1    
    80   40  102 1    
    81   41  103 1    
    82   41  104 1    
    83   41  105 1    
    84   42   43 am   BACKBONE|DICT|INTERRES
    85   42  106 1    
    86   43   44 2    
    87   43   45 1    
    88   45   46 1    
    89   45   49 1    
    90   45  107 1    
    91   46   47 1    
    92   46  108 1    
    93   46  109 1    
    94   47   48 1    
    95   48  110 1    
    96   48  111 1    
    97   49   50 am   BACKBONE|DICT|INTERRES
    98   49  112 1    
    99   50   51 2    
   100   50   52 1    
   101   52   53 1    
   102   52   54 1    
   103   52  113 1    
   104   53  114 1    
   105   53  115 1    
   106   53  116 1    
   107   54   55 am   BACKBONE|DICT|INTERRES
   108   54  117 1    
   109   55   56 2    
   110   55   57 1    
   111   57   58 1    
   112   57   59 1    
   113   57  118 1    
   114   58  119 1    
   115   58  120 1    
   116   58  121 1    
   117   59   60 am   BACKBONE|DICT|INTERRES
   118   59  122 1    
   119   60   61 2    
   120   60   62 1    
   121   62   63 1    
   122   62   64 1    
   123   62  123 1    
   124   63  124 1    
   125   63  125 1    
   126   63  126 1    
   127   64   65 am   BACKBONE|DICT|INTERRES
   128   64  127 1    
   129   65   66 2    
@<TRIPOS>SUBSTRUCTURE
     1 UNK         1 GROUP             0       ****    0 ROOT    
