@<TRIPOS>MOLECULE
3R135
127   129    1
SMALL
USER_CHARGES


@<TRIPOS>ATOM
      1 CA        -80.3071   31.2306  -76.2908 C.3       0 UNK        -0.1998 
      2 C         -79.4531   30.0218  -75.9400 C.2       0 UNK         0.4909 
      3 O         -78.3285   29.9071  -76.4253 O.2       0 UNK        -0.5240 
      4 N         -79.9807   29.1206  -75.1007 N.am      1 UNK        -0.4739 
      5 CA        -79.2999   27.9057  -74.6297 C.3       1 UNK         0.0864 
      6 C6        -80.0570   27.2265  -73.4585 C.3       11 UNK        -0.0881 
      7 S7        -80.5176   28.3681  -72.1095 S.3       11 UNK        -0.2682 
      8 C8        -79.7872   27.5595  -70.6512 C.3       11 UNK         0.0289 
      9 C9        -78.2883   27.8002  -70.5616 C.ar      11 UNK        -0.0687 
     10 C10       -77.3827   26.7695  -70.8264 C.ar      11 UNK        -0.0823 
     11 C11       -76.0044   26.9952  -70.7389 C.ar      11 UNK        -0.0830 
     12 C12       -75.5354   28.2603  -70.3681 C.ar      11 UNK        -0.1021 
     13 C13       -76.4347   29.2927  -70.0836 C.ar      11 UNK        -0.0753 
     14 C14       -77.8079   29.0568  -70.1857 C.ar      11 UNK        -0.0933 
     15 C15       -75.9392   30.6593  -69.6385 C.3       11 UNK         0.0166 
     16 S16       -75.8733   31.8345  -71.0253 S.3       11 UNK        -0.2615 
     17 C17       -74.2513   31.4533  -71.7706 C.3       11 UNK        -0.0865 
     18 CA        -74.3470   30.6941  -73.1278 C.3       10 UNK         0.0862 
     19 C         -74.7531   31.5836  -74.3408 C.2       10 UNK         0.5551 
     20 N         -74.7235   31.0388  -75.5489 N.am      10 UNK        -0.7319 
     21 O         -75.0838   32.7594  -74.2044 O.2       10 UNK        -0.5018 
     22 N         -73.1452   29.8876  -73.4029 N.am      10 UNK        -0.4509 
     23 C         -71.8924   30.3618  -73.4794 C.2       10 UNK         0.4899 
     24 O         -71.5873   31.5407  -73.2966 O.2       10 UNK        -0.4839 
     25 CA        -70.7725   29.3529  -73.7825 C.3       9 UNK         0.0222 
     26 CB        -70.2513   28.7293  -72.4772 C.3       9 UNK        -0.1966 
     27 N         -71.1828   28.2873  -74.6955 N.am      9 UNK        -0.4218 
     28 C         -71.3700   28.4335  -76.0142 C.2       9 UNK         0.5020 
     29 O         -71.1954   29.4914  -76.6219 O.2       9 UNK        -0.5274 
     30 CA        -71.8148   27.1827  -76.8002 C.3       8 UNK         0.0270 
     31 CB        -71.7338   25.8709  -75.9901 C.3       8 UNK        -0.1976 
     32 N         -73.1509   27.3114  -77.3936 N.am      8 UNK        -0.4313 
     33 C         -74.2714   27.7597  -76.8099 C.2       8 UNK         0.5041 
     34 O         -74.3342   28.2012  -75.6624 O.2       8 UNK        -0.5577 
     35 CA        -75.5617   27.6705  -77.6359 C.3       7 UNK         0.0284 
     36 CB        -75.4454   28.3143  -79.0334 C.3       7 UNK        -0.1958 
     37 N         -76.0539   26.2928  -77.6814 N.am      7 UNK        -0.4454 
     38 C         -75.5172   25.2296  -78.2985 C.2       7 UNK         0.5089 
     39 O         -74.5636   25.2855  -79.0776 O.2       7 UNK        -0.5125 
     40 CA        -76.1462   23.8732  -77.9250 C.3       6 UNK         0.0408 
     41 CB        -75.4108   22.6622  -78.5370 C.3       6 UNK        -0.1791 
     42 N         -76.2858   23.7489  -76.4674 N.am      6 UNK        -0.4762 
     43 C         -75.2917   23.7346  -75.5630 C.2       6 UNK         0.5007 
     44 O         -74.1004   23.6142  -75.8438 O.2       6 UNK        -0.5032 
     45 CA        -75.7035   23.9086  -74.0897 C.3       5 UNK         0.0783 
     46 C46       -75.7655   25.4140  -73.7015 C.3       11 UNK        -0.0857 
     47 S47       -74.3373   25.9474  -72.7018 S.3       11 UNK        -0.2512 
     48 C48       -75.0209   25.8661  -71.0164 C.3       11 UNK         0.0225 
     49 N         -76.9572   23.2065  -73.7925 N.am      5 UNK        -0.4615 
     50 C         -77.0680   21.8802  -73.6517 C.2       4 UNK         0.5053 
     51 O         -76.1164   21.1050  -73.7482 O.2       4 UNK        -0.5105 
     52 CA        -78.4642   21.3091  -73.3408 C.3       4 UNK         0.0263 
     53 CB        -78.8671   21.5922  -71.8790 C.3       4 UNK        -0.1981 
     54 N         -79.5207   21.7088  -74.2832 N.am      4 UNK        -0.4224 
     55 C         -80.0325   22.9292  -74.4880 C.2       3 UNK         0.4895 
     56 O         -79.6637   23.9425  -73.8901 O.2       3 UNK        -0.5091 
     57 CA        -81.1689   23.0332  -75.5153 C.3       3 UNK         0.0250 
     58 CB        -82.5324   23.0226  -74.8060 C.3       3 UNK        -0.1996 
     59 N         -81.0305   24.2779  -76.2669 N.am      3 UNK        -0.4254 
     60 C         -80.2595   24.4275  -77.3514 C.2       2 UNK         0.5004 
     61 O         -79.7187   23.4938  -77.9430 O.2       2 UNK        -0.5226 
     62 CA        -80.0208   25.8700  -77.8346 C.3       2 UNK         0.0269 
     63 CB        -81.0796   26.2800  -78.8699 C.3       2 UNK        -0.1926 
     64 N         -80.0078   26.8438  -76.7370 N.am      2 UNK        -0.4687 
     65 C         -79.0842   26.8801  -75.7634 C.2       1 UNK         0.5165 
     66 O         -78.1045   26.1353  -75.7404 O.2       1 UNK        -0.5079 
     67 H67       -79.7944   32.1474  -76.0011 H         1 UNK         0.0900 
     68 H68       -81.2731   31.2084  -75.7866 H         1 UNK         0.0900 
     69 H69       -80.4852   31.2645  -77.3653 H         1 UNK         0.0900 
     70 H70       -80.8962   29.2836  -74.7052 H         1 UNK         0.2959 
     71 H71       -78.3105   28.1996  -74.2704 H         1 UNK         0.1079 
     72 H72       -80.9766   26.7554  -73.8112 H         1 UNK         0.0837 
     73 H73       -79.4473   26.4193  -73.0494 H         1 UNK         0.0837 
     74 H74       -80.2651   27.9585  -69.7554 H         1 UNK         0.0685 
     75 H75       -80.0165   26.4927  -70.6672 H         1 UNK         0.0685 
     76 H76       -77.7526   25.7904  -71.0988 H         1 UNK         0.1434 
     77 H77       -74.4711   28.4374  -70.2940 H         1 UNK         0.1329 
     78 H78       -78.5068   29.8541  -69.9719 H         1 UNK         0.1335 
     79 H79       -76.6157   31.0580  -68.8809 H         1 UNK         0.0680 
     80 H80       -74.9642   30.5831  -69.1548 H         1 UNK         0.0680 
     81 H81       -73.6717   30.8651  -71.0584 H         1 UNK         0.1032 
     82 H82       -73.6980   32.3866  -71.8886 H         1 UNK         0.1032 
     83 H83       -75.1501   29.9621  -73.0288 H         1 UNK         0.0461 
     84 H84       -74.9828   31.5861  -76.3529 H         1 UNK         0.3453 
     85 H85       -74.4911   30.0530  -75.6426 H         1 UNK         0.3453 
     86 H86       -73.3199   28.9272  -73.6705 H         1 UNK         0.2984 
     87 H87       -69.9495   29.9001  -74.2473 H         1 UNK         0.0554 
     88 H88       -69.4022   28.0709  -72.6619 H         1 UNK         0.0847 
     89 H89       -71.0227   28.1497  -71.9681 H         1 UNK         0.0847 
     90 H90       -69.9146   29.5015  -71.7839 H         1 UNK         0.0847 
     91 H91       -71.3734   27.3831  -74.2884 H         1 UNK         0.3141 
     92 H92       -71.1174   27.0929  -77.6344 H         1 UNK         0.0743 
     93 H93       -72.4646   25.8426  -75.1809 H         1 UNK         0.0784 
     94 H94       -71.9284   25.0113  -76.6317 H         1 UNK         0.0784 
     95 H95       -70.7422   25.7220  -75.5604 H         1 UNK         0.0784 
     96 H96       -73.2556   26.9232  -78.3235 H         1 UNK         0.3213 
     97 H97       -76.3182   28.2342  -77.0875 H         1 UNK         0.0855 
     98 H98       -75.1334   29.3561  -78.9504 H         1 UNK         0.0814 
     99 H99       -76.4067   28.3066  -79.5469 H         1 UNK         0.0814 
    100 H100      -74.7227   27.8118  -79.6756 H         1 UNK         0.0814 
    101 H101      -76.8020   26.1074  -77.0147 H         1 UNK         0.3105 
    102 H102      -77.1552   23.8815  -78.3357 H         1 UNK         0.0547 
    103 H103      -75.4358   22.7061  -79.6263 H         1 UNK         0.0837 
    104 H104      -74.3619   22.6255  -78.2423 H         1 UNK         0.0837 
    105 H105      -75.8772   21.7234  -78.2391 H         1 UNK         0.0837 
    106 H106      -77.2238   23.8765  -76.1105 H         1 UNK         0.3020 
    107 H107      -74.9243   23.4244  -73.4958 H         1 UNK         0.1245 
    108 H108      -76.6875   25.6406  -73.1700 H         1 UNK         0.0781 
    109 H109      -75.7949   26.0668  -74.5755 H         1 UNK         0.0781 
    110 H110      -74.1978   25.9188  -70.3023 H         1 UNK         0.0836 
    111 H111      -75.4926   24.8942  -70.8619 H         1 UNK         0.0836 
    112 H112      -77.8099   23.7590  -73.7362 H         1 UNK         0.3022 
    113 H113      -78.3825   20.2256  -73.4440 H         1 UNK         0.0747 
    114 H114      -79.8162   21.1168  -71.6313 H         1 UNK         0.0793 
    115 H115      -78.1193   21.2011  -71.1879 H         1 UNK         0.0793 
    116 H116      -78.9652   22.6591  -71.6765 H         1 UNK         0.0793 
    117 H117      -79.8862   20.9524  -74.8460 H         1 UNK         0.3047 
    118 H118      -81.1227   22.1837  -76.2006 H         1 UNK         0.0822 
    119 H119      -83.3517   23.1025  -75.5208 H         1 UNK         0.0807 
    120 H120      -82.6257   23.8451  -74.0952 H         1 UNK         0.0807 
    121 H121      -82.6766   22.0948  -74.2507 H         1 UNK         0.0807 
    122 H122      -81.3905   25.1100  -75.8245 H         1 UNK         0.2946 
    123 H123      -79.0420   25.8941  -78.3188 H         1 UNK         0.1144 
    124 H124      -81.0940   25.5830  -79.7091 H         1 UNK         0.0793 
    125 H125      -80.8734   27.2701  -79.2770 H         1 UNK         0.0793 
    126 H126      -82.0822   26.2942  -78.4407 H         1 UNK         0.0793 
    127 H127      -80.7664   27.5096  -76.7007 H         1 UNK         0.2896 
@<TRIPOS>BOND
     1    1    2 1    
     2    1   67 1    
     3    1   68 1    
     4    1   69 1    
     5    2    3 2    
     6    2    4 am   BACKBONE|DICT|INTERRES
     7    4    5 1    
     8    4   70 1    
     9    5    6 1    
    10    5   65 1    
    11    5   71 1    
    12    6    7 1    
    13    6   72 1    
    14    6   73 1    
    15    7    8 1    
    16    8    9 1    
    17    8   74 1    
    18    8   75 1    
    19    9   10 ar   
    20    9   14 ar   
    21   10   11 ar   
    22   10   76 1    
    23   11   12 ar   
    24   11   48 1    
    25   12   13 ar   
    26   12   77 1    
    27   13   14 ar   
    28   13   15 1    
    29   14   78 1    
    30   15   16 1    
    31   15   79 1    
    32   15   80 1    
    33   16   17 1    
    34   17   18 1    
    35   17   81 1    
    36   17   82 1    
    37   18   19 1    
    38   18   22 1    
    39   18   83 1    
    40   19   20 am   BACKBONE|DICT|INTERRES
    41   19   21 2    
    42   20   84 1    
    43   20   85 1    
    44   22   23 am   BACKBONE|DICT|INTERRES
    45   22   86 1    
    46   23   24 2    
    47   23   25 1    
    48   25   26 1    
    49   25   27 1    
    50   25   87 1    
    51   26   88 1    
    52   26   89 1    
    53   26   90 1    
    54   27   28 am   BACKBONE|DICT|INTERRES
    55   27   91 1    
    56   28   29 2    
    57   28   30 1    
    58   30   31 1    
    59   30   32 1    
    60   30   92 1    
    61   31   93 1    
    62   31   94 1    
    63   31   95 1    
    64   32   33 am   BACKBONE|DICT|INTERRES
    65   32   96 1    
    66   33   34 2    
    67   33   35 1    
    68   35   36 1    
    69   35   37 1    
    70   35   97 1    
    71   36   98 1    
    72   36   99 1    
    73   36  100 1    
    74   37   38 am   BACKBONE|DICT|INTERRES
    75   37  101 1    
    76   38   39 2    
    77   38   40 1    
    78   40   41 1    
    79   40   42 1    
    80   40  102 1    
    81   41  103 1    
    82   41  104 1    
    83   41  105 1    
    84   42   43 am   BACKBONE|DICT|INTERRES
    85   42  106 1    
    86   43   44 2    
    87   43   45 1    
    88   45   46 1    
    89   45   49 1    
    90   45  107 1    
    91   46   47 1    
    92   46  108 1    
    93   46  109 1    
    94   47   48 1    
    95   48  110 1    
    96   48  111 1    
    97   49   50 am   BACKBONE|DICT|INTERRES
    98   49  112 1    
    99   50   51 2    
   100   50   52 1    
   101   52   53 1    
   102   52   54 1    
   103   52  113 1    
   104   53  114 1    
   105   53  115 1    
   106   53  116 1    
   107   54   55 am   BACKBONE|DICT|INTERRES
   108   54  117 1    
   109   55   56 2    
   110   55   57 1    
   111   57   58 1    
   112   57   59 1    
   113   57  118 1    
   114   58  119 1    
   115   58  120 1    
   116   58  121 1    
   117   59   60 am   BACKBONE|DICT|INTERRES
   118   59  122 1    
   119   60   61 2    
   120   60   62 1    
   121   62   63 1    
   122   62   64 1    
   123   62  123 1    
   124   63  124 1    
   125   63  125 1    
   126   63  126 1    
   127   64   65 am   BACKBONE|DICT|INTERRES
   128   64  127 1    
   129   65   66 2    
@<TRIPOS>SUBSTRUCTURE
     1 UNK         1 GROUP             0       ****    0 ROOT    
