@<TRIPOS>MOLECULE
3R135
127   129    1
SMALL
USER_CHARGES


@<TRIPOS>ATOM
      1 CA        -76.7093   25.5054  -71.3242 C.3       0 UNK        -0.1998 
      2 C         -78.2207   25.3374  -71.2937 C.2       0 UNK         0.4909 
      3 O         -78.7082   24.2922  -70.8613 O.2       0 UNK        -0.5240 
      4 N         -78.9637   26.3502  -71.7602 N.am      1 UNK        -0.4739 
      5 CA        -80.4162   26.2878  -71.9817 C.3       1 UNK         0.0864 
      6 C6        -81.0532   27.7017  -72.0446 C.3       11 UNK        -0.0881 
      7 S7        -80.8941   28.5841  -70.4519 S.3       11 UNK        -0.2682 
      8 C8        -80.0324   30.1197  -70.9196 C.3       11 UNK         0.0289 
      9 C9        -78.6434   29.8499  -71.4770 C.ar      11 UNK        -0.0687 
     10 C10       -78.3897   30.0248  -72.8388 C.ar      11 UNK        -0.0823 
     11 C11       -77.1294   29.7364  -73.3678 C.ar      11 UNK        -0.0830 
     12 C12       -76.1197   29.2813  -72.5167 C.ar      11 UNK        -0.1021 
     13 C13       -76.3363   29.1585  -71.1374 C.ar      11 UNK        -0.0753 
     14 C14       -77.6102   29.4354  -70.6316 C.ar      11 UNK        -0.0933 
     15 C15       -75.2464   28.7230  -70.1524 C.3       11 UNK         0.0166 
     16 S16       -73.5802   28.4573  -70.8565 S.3       11 UNK        -0.2615 
     17 C17       -72.8619   30.1396  -70.8566 C.3       11 UNK        -0.0865 
     18 CA        -73.0843   30.9399  -72.1685 C.3       10 UNK         0.0862 
     19 C         -72.3687   32.3163  -72.0948 C.2       10 UNK         0.5551 
     20 N         -73.0424   33.3383  -71.5849 N.am      10 UNK        -0.7319 
     21 O         -71.1992   32.4535  -72.4496 O.2       10 UNK        -0.5018 
     22 N         -72.7075   30.1636  -73.3590 N.am      10 UNK        -0.4509 
     23 C         -72.9837   30.4960  -74.6245 C.2       10 UNK         0.4899 
     24 O         -73.6135   31.5050  -74.9421 O.2       10 UNK        -0.4839 
     25 CA        -72.5223   29.5326  -75.7347 C.3       9 UNK         0.0222 
     26 CB        -71.0796   29.8431  -76.1781 C.3       9 UNK        -0.1966 
     27 N         -72.7068   28.1035  -75.4357 N.am      9 UNK        -0.4218 
     28 C         -72.0725   27.3420  -74.5306 C.2       9 UNK         0.5020 
     29 O         -71.2090   27.7667  -73.7615 O.2       9 UNK        -0.5274 
     30 CA        -72.4758   25.8599  -74.4427 C.3       8 UNK         0.0270 
     31 CB        -73.5713   25.6607  -73.3831 C.3       8 UNK        -0.1976 
     32 N         -72.9257   25.2824  -75.7110 N.am      8 UNK        -0.4313 
     33 C         -72.1362   25.0271  -76.7640 C.2       8 UNK         0.5041 
     34 O         -70.9388   25.3112  -76.8092 O.2       8 UNK        -0.5577 
     35 CA        -72.7858   24.3180  -77.9622 C.3       7 UNK         0.0284 
     36 CB        -72.9059   22.8080  -77.6956 C.3       7 UNK        -0.1958 
     37 N         -74.1113   24.8666  -78.2484 N.am      7 UNK        -0.4454 
     38 C         -74.3619   25.8069  -79.1689 C.2       7 UNK         0.5089 
     39 O         -73.5129   26.2564  -79.9395 O.2       7 UNK        -0.5125 
     40 CA        -75.8018   26.3521  -79.2464 C.3       6 UNK         0.0408 
     41 CB        -76.5922   25.6213  -80.3427 C.3       6 UNK        -0.1791 
     42 N         -76.5410   26.2784  -77.9813 N.am      6 UNK        -0.4762 
     43 C         -76.1992   26.9421  -76.8652 C.2       6 UNK         0.5007 
     44 O         -75.1999   27.6564  -76.7832 O.2       6 UNK        -0.5032 
     45 CA        -77.0648   26.7167  -75.6031 C.3       5 UNK         0.0783 
     46 C46       -78.3213   27.6285  -75.5496 C.3       11 UNK        -0.0857 
     47 S47       -78.1265   29.3938  -75.9829 S.3       11 UNK        -0.2512 
     48 C48       -76.8206   29.9640  -74.8433 C.3       11 UNK         0.0225 
     49 N         -77.4742   25.3199  -75.4285 N.am      5 UNK        -0.4615 
     50 C         -76.7243   24.2171  -75.5439 C.2       4 UNK         0.5053 
     51 O         -75.5069   24.2254  -75.7216 O.2       4 UNK        -0.5105 
     52 CA        -77.4744   22.8761  -75.5323 C.3       4 UNK         0.0263 
     53 CB        -77.5123   22.2939  -74.1109 C.3       4 UNK        -0.1981 
     54 N         -78.8396   22.9633  -76.0698 N.am      4 UNK        -0.4224 
     55 C         -79.1637   23.3205  -77.3246 C.2       3 UNK         0.4895 
     56 O         -78.3328   23.6375  -78.1759 O.2       3 UNK        -0.5091 
     57 CA        -80.6568   23.3354  -77.7047 C.3       3 UNK         0.0250 
     58 CB        -81.0105   22.0800  -78.5188 C.3       3 UNK        -0.1996 
     59 N         -81.5328   23.4082  -76.5330 N.am      3 UNK        -0.4254 
     60 C         -81.9179   24.5455  -75.9376 C.2       2 UNK         0.5004 
     61 O         -81.7046   25.6672  -76.4023 O.2       2 UNK        -0.5226 
     62 CA        -82.6342   24.4178  -74.5721 C.3       2 UNK         0.0269 
     63 CB        -82.7311   22.9664  -74.0473 C.3       2 UNK        -0.1926 
     64 N         -82.0530   25.2680  -73.5184 N.am      2 UNK        -0.4687 
     65 C         -80.7510   25.4337  -73.2298 C.2       1 UNK         0.5165 
     66 O         -79.8406   24.9351  -73.8967 O.2       1 UNK        -0.5079 
     67 H67       -76.2508   24.6559  -71.8298 H         1 UNK         0.0900 
     68 H68       -76.3139   25.5523  -70.3104 H         1 UNK         0.0900 
     69 H69       -76.4111   26.4077  -71.8554 H         1 UNK         0.0900 
     70 H70       -78.5136   27.2016  -72.0641 H         1 UNK         0.2959 
     71 H71       -80.8587   25.7609  -71.1331 H         1 UNK         0.1079 
     72 H72       -80.6179   28.2865  -72.8556 H         1 UNK         0.0837 
     73 H73       -82.1210   27.6452  -72.2605 H         1 UNK         0.0837 
     74 H74       -80.6432   30.6680  -71.6386 H         1 UNK         0.0685 
     75 H75       -79.9485   30.7592  -70.0397 H         1 UNK         0.0685 
     76 H76       -79.1766   30.3800  -73.4902 H         1 UNK         0.1434 
     77 H77       -75.1541   29.0518  -72.9398 H         1 UNK         0.1329 
     78 H78       -77.8045   29.3209  -69.5736 H         1 UNK         0.1335 
     79 H79       -75.1796   29.4512  -69.3430 H         1 UNK         0.0680 
     80 H80       -75.5617   27.7882  -69.6887 H         1 UNK         0.0680 
     81 H81       -71.7921   30.0292  -70.6682 H         1 UNK         0.1032 
     82 H82       -73.2547   30.6944  -70.0027 H         1 UNK         0.1032 
     83 H83       -74.1522   31.1440  -72.2537 H         1 UNK         0.0461 
     84 H84       -72.5899   34.2362  -71.5125 H         1 UNK         0.3453 
     85 H85       -73.9988   33.2346  -71.2832 H         1 UNK         0.3453 
     86 H86       -72.1541   29.3263  -73.2012 H         1 UNK         0.2984 
     87 H87       -73.1691   29.7228  -76.5928 H         1 UNK         0.0554 
     88 H88       -70.7739   29.2052  -77.0074 H         1 UNK         0.0847 
     89 H89       -70.3634   29.7065  -75.3675 H         1 UNK         0.0847 
     90 H90       -70.9918   30.8772  -76.5136 H         1 UNK         0.0847 
     91 H91       -73.4562   27.6698  -75.9701 H         1 UNK         0.3141 
     92 H92       -71.5936   25.3011  -74.1234 H         1 UNK         0.0743 
     93 H93       -74.4610   26.2494  -73.6052 H         1 UNK         0.0784 
     94 H94       -73.8700   24.6149  -73.3082 H         1 UNK         0.0784 
     95 H95       -73.2158   25.9631  -72.3980 H         1 UNK         0.0784 
     96 H96       -73.8922   24.9598  -75.7429 H         1 UNK         0.3213 
     97 H97       -72.1306   24.4533  -78.8257 H         1 UNK         0.0855 
     98 H98       -73.5496   22.5934  -76.8416 H         1 UNK         0.0814 
     99 H99       -71.9287   22.3711  -77.4853 H         1 UNK         0.0814 
    100 H100      -73.3142   22.2857  -78.5609 H         1 UNK         0.0814 
    101 H101      -74.8623   24.5872  -77.6272 H         1 UNK         0.3105 
    102 H102      -75.7354   27.4063  -79.5234 H         1 UNK         0.0547 
    103 H103      -76.0972   25.7178  -81.3099 H         1 UNK         0.0837 
    104 H104      -76.6847   24.5556  -80.1304 H         1 UNK         0.0837 
    105 H105      -77.5966   26.0306  -80.4512 H         1 UNK         0.0837 
    106 H106      -77.3320   25.6453  -77.9533 H         1 UNK         0.3020 
    107 H107      -76.4351   26.9649  -74.7478 H         1 UNK         0.1245 
    108 H108      -78.7637   27.5765  -74.5544 H         1 UNK         0.0781 
    109 H109      -79.0848   27.2329  -76.2227 H         1 UNK         0.0781 
    110 H110      -76.6697   31.0328  -74.9996 H         1 UNK         0.0836 
    111 H111      -75.8781   29.4908  -75.1158 H         1 UNK         0.0836 
    112 H112      -78.4487   25.1768  -75.1739 H         1 UNK         0.3022 
    113 H113      -76.9145   22.1884  -76.1694 H         1 UNK         0.0747 
    114 H114      -77.9539   21.2974  -74.1015 H         1 UNK         0.0793 
    115 H115      -76.5060   22.2051  -73.6988 H         1 UNK         0.0793 
    116 H116      -78.0876   22.9225  -73.4302 H         1 UNK         0.0793 
    117 H117      -79.5872   22.7925  -75.4141 H         1 UNK         0.3047 
    118 H118      -80.8246   24.2090  -78.3386 H         1 UNK         0.0822 
    119 H119      -82.0503   22.0997  -78.8459 H         1 UNK         0.0807 
    120 H120      -80.8558   21.1660  -77.9439 H         1 UNK         0.0807 
    121 H121      -80.3922   22.0097  -79.4150 H         1 UNK         0.0807 
    122 H122      -81.7800   22.5319  -76.0960 H         1 UNK         0.2946 
    123 H123      -83.6503   24.7789  -74.7397 H         1 UNK         0.1144 
    124 H124      -83.2581   22.3179  -74.7486 H         1 UNK         0.0793 
    125 H125      -83.2892   22.9284  -73.1115 H         1 UNK         0.0793 
    126 H126      -81.7478   22.5344  -73.8559 H         1 UNK         0.0793 
    127 H127      -82.7286   25.7459  -72.9387 H         1 UNK         0.2896 
@<TRIPOS>BOND
     1    1    2 1    
     2    1   67 1    
     3    1   68 1    
     4    1   69 1    
     5    2    3 2    
     6    2    4 am   BACKBONE|DICT|INTERRES
     7    4    5 1    
     8    4   70 1    
     9    5    6 1    
    10    5   65 1    
    11    5   71 1    
    12    6    7 1    
    13    6   72 1    
    14    6   73 1    
    15    7    8 1    
    16    8    9 1    
    17    8   74 1    
    18    8   75 1    
    19    9   10 ar   
    20    9   14 ar   
    21   10   11 ar   
    22   10   76 1    
    23   11   12 ar   
    24   11   48 1    
    25   12   13 ar   
    26   12   77 1    
    27   13   14 ar   
    28   13   15 1    
    29   14   78 1    
    30   15   16 1    
    31   15   79 1    
    32   15   80 1    
    33   16   17 1    
    34   17   18 1    
    35   17   81 1    
    36   17   82 1    
    37   18   19 1    
    38   18   22 1    
    39   18   83 1    
    40   19   20 am   BACKBONE|DICT|INTERRES
    41   19   21 2    
    42   20   84 1    
    43   20   85 1    
    44   22   23 am   BACKBONE|DICT|INTERRES
    45   22   86 1    
    46   23   24 2    
    47   23   25 1    
    48   25   26 1    
    49   25   27 1    
    50   25   87 1    
    51   26   88 1    
    52   26   89 1    
    53   26   90 1    
    54   27   28 am   BACKBONE|DICT|INTERRES
    55   27   91 1    
    56   28   29 2    
    57   28   30 1    
    58   30   31 1    
    59   30   32 1    
    60   30   92 1    
    61   31   93 1    
    62   31   94 1    
    63   31   95 1    
    64   32   33 am   BACKBONE|DICT|INTERRES
    65   32   96 1    
    66   33   34 2    
    67   33   35 1    
    68   35   36 1    
    69   35   37 1    
    70   35   97 1    
    71   36   98 1    
    72   36   99 1    
    73   36  100 1    
    74   37   38 am   BACKBONE|DICT|INTERRES
    75   37  101 1    
    76   38   39 2    
    77   38   40 1    
    78   40   41 1    
    79   40   42 1    
    80   40  102 1    
    81   41  103 1    
    82   41  104 1    
    83   41  105 1    
    84   42   43 am   BACKBONE|DICT|INTERRES
    85   42  106 1    
    86   43   44 2    
    87   43   45 1    
    88   45   46 1    
    89   45   49 1    
    90   45  107 1    
    91   46   47 1    
    92   46  108 1    
    93   46  109 1    
    94   47   48 1    
    95   48  110 1    
    96   48  111 1    
    97   49   50 am   BACKBONE|DICT|INTERRES
    98   49  112 1    
    99   50   51 2    
   100   50   52 1    
   101   52   53 1    
   102   52   54 1    
   103   52  113 1    
   104   53  114 1    
   105   53  115 1    
   106   53  116 1    
   107   54   55 am   BACKBONE|DICT|INTERRES
   108   54  117 1    
   109   55   56 2    
   110   55   57 1    
   111   57   58 1    
   112   57   59 1    
   113   57  118 1    
   114   58  119 1    
   115   58  120 1    
   116   58  121 1    
   117   59   60 am   BACKBONE|DICT|INTERRES
   118   59  122 1    
   119   60   61 2    
   120   60   62 1    
   121   62   63 1    
   122   62   64 1    
   123   62  123 1    
   124   63  124 1    
   125   63  125 1    
   126   63  126 1    
   127   64   65 am   BACKBONE|DICT|INTERRES
   128   64  127 1    
   129   65   66 2    
@<TRIPOS>SUBSTRUCTURE
     1 UNK         1 GROUP             0       ****    0 ROOT    
