@<TRIPOS>MOLECULE
3R135
127   129    1
SMALL
USER_CHARGES


@<TRIPOS>ATOM
      1 CA        -79.0172   30.3661  -77.4200 C.3       0 UNK        -0.1998 
      2 C         -79.9278   29.6712  -76.4178 C.2       0 UNK         0.4909 
      3 O         -81.1436   29.8575  -76.4770 O.2       0 UNK        -0.5240 
      4 N         -79.3320   28.8875  -75.5069 N.am      1 UNK        -0.4739 
      5 CA        -79.9600   28.0637  -74.4603 C.3       1 UNK         0.0864 
      6 C6        -80.9445   28.8259  -73.5250 C.3       11 UNK        -0.0881 
      7 S7        -80.2902   30.3856  -72.8326 S.3       11 UNK        -0.2682 
      8 C8        -79.6868   29.8725  -71.1936 C.3       11 UNK         0.0289 
      9 C9        -78.3152   29.2238  -71.2882 C.ar      11 UNK        -0.0687 
     10 C10       -78.1682   27.8418  -71.1421 C.ar      11 UNK        -0.0823 
     11 C11       -76.9071   27.2463  -71.2557 C.ar      11 UNK        -0.0830 
     12 C12       -75.7883   28.0476  -71.5039 C.ar      11 UNK        -0.1021 
     13 C13       -75.9207   29.4346  -71.6213 C.ar      11 UNK        -0.0753 
     14 C14       -77.1865   30.0160  -71.5165 C.ar      11 UNK        -0.0933 
     15 C15       -74.6991   30.3037  -71.8685 C.3       11 UNK         0.0166 
     16 S16       -73.6374   30.3977  -70.3929 S.3       11 UNK        -0.2615 
     17 C17       -72.4413   31.6957  -70.8751 C.3       11 UNK        -0.0865 
     18 CA        -71.1502   31.1781  -71.5663 C.3       10 UNK         0.0862 
     19 C         -70.2448   30.3385  -70.6202 C.2       10 UNK         0.5551 
     20 N         -69.5782   30.9852  -69.6734 N.am      10 UNK        -0.7319 
     21 O         -70.1532   29.1157  -70.7197 O.2       10 UNK        -0.5018 
     22 N         -71.4700   30.4997  -72.8264 N.am      10 UNK        -0.4509 
     23 C         -70.6212   30.2792  -73.8355 C.2       10 UNK         0.4899 
     24 O         -69.4485   30.6552  -73.8443 O.2       10 UNK        -0.4839 
     25 CA        -71.1792   29.5221  -75.0559 C.3       9 UNK         0.0222 
     26 CB        -70.8068   28.0327  -74.9773 C.3       9 UNK        -0.1966 
     27 N         -72.6323   29.6418  -75.2290 N.am      9 UNK        -0.4218 
     28 C         -73.2969   30.7667  -75.5277 C.2       9 UNK         0.5020 
     29 O         -72.7561   31.8637  -75.6765 O.2       9 UNK        -0.5274 
     30 CA        -74.8196   30.6184  -75.7258 C.3       8 UNK         0.0270 
     31 CB        -75.5369   31.9716  -75.8885 C.3       8 UNK        -0.1976 
     32 N         -75.1135   29.7726  -76.8852 N.am      8 UNK        -0.4313 
     33 C         -75.0374   28.4370  -76.8878 C.2       8 UNK         0.5041 
     34 O         -74.7645   27.7687  -75.8856 O.2       8 UNK        -0.5577 
     35 CA        -75.2528   27.7423  -78.2349 C.3       7 UNK         0.0284 
     36 CB        -74.0086   27.8812  -79.1320 C.3       7 UNK        -0.1958 
     37 N         -75.5245   26.3332  -77.9821 N.am      7 UNK        -0.4454 
     38 C         -76.1991   25.5036  -78.7807 C.2       7 UNK         0.5089 
     39 O         -76.6416   25.8333  -79.8818 O.2       7 UNK        -0.5125 
     40 CA        -76.4555   24.0722  -78.2752 C.3       6 UNK         0.0408 
     41 CB        -75.3983   23.0899  -78.8140 C.3       6 UNK        -0.1791 
     42 N         -76.6187   23.9480  -76.8204 N.am      6 UNK        -0.4762 
     43 C         -75.7118   24.0643  -75.8369 C.2       6 UNK         0.5007 
     44 O         -74.5301   24.3566  -76.0159 O.2       6 UNK        -0.5032 
     45 CA        -76.2318   23.8043  -74.4112 C.3       5 UNK         0.0783 
     46 C46       -76.8915   25.0868  -73.8367 C.3       11 UNK        -0.0857 
     47 S47       -77.7602   24.7964  -72.2569 S.3       11 UNK        -0.2512 
     48 C48       -76.7476   25.7423  -71.0783 C.3       11 UNK         0.0225 
     49 N         -77.1418   22.6546  -74.4244 N.am      5 UNK        -0.4615 
     50 C         -76.7615   21.3707  -74.4141 C.2       4 UNK         0.5053 
     51 O         -75.5894   21.0066  -74.3173 O.2       4 UNK        -0.5105 
     52 CA        -77.8716   20.3076  -74.5232 C.3       4 UNK         0.0263 
     53 CB        -78.2884   19.8270  -73.1237 C.3       4 UNK        -0.1981 
     54 N         -79.0573   20.7872  -75.2383 N.am      4 UNK        -0.4224 
     55 C         -79.1185   20.9989  -76.5613 C.2       3 UNK         0.4895 
     56 O         -78.2145   20.7089  -77.3448 O.2       3 UNK        -0.5091 
     57 CA        -80.3918   21.6821  -77.1000 C.3       3 UNK         0.0250 
     58 CB        -81.4047   20.6296  -77.5785 C.3       3 UNK        -0.1996 
     59 N         -81.0437   22.5863  -76.1408 N.am      3 UNK        -0.4254 
     60 C         -80.4640   23.6653  -75.5962 C.2       2 UNK         0.5004 
     61 O         -79.3044   24.0018  -75.8418 O.2       2 UNK        -0.5226 
     62 CA        -81.2905   24.4427  -74.5556 C.3       2 UNK         0.0269 
     63 CB        -81.4355   23.6196  -73.2632 C.3       2 UNK        -0.1926 
     64 N         -80.6961   25.7394  -74.2124 N.am      2 UNK        -0.4687 
     65 C         -80.6319   26.7945  -75.0361 C.2       1 UNK         0.5165 
     66 O         -81.1048   26.7856  -76.1754 O.2       1 UNK        -0.5079 
     67 H67       -79.0673   31.4464  -77.2856 H         1 UNK         0.0900 
     68 H68       -79.3321   30.1336  -78.4370 H         1 UNK         0.0900 
     69 H69       -77.9786   30.0575  -77.3103 H         1 UNK         0.0900 
     70 H70       -78.3268   28.8019  -75.5431 H         1 UNK         0.2959 
     71 H71       -79.1259   27.7202  -73.8467 H         1 UNK         0.1079 
     72 H72       -81.8613   29.0726  -74.0634 H         1 UNK         0.0837 
     73 H73       -81.2587   28.1824  -72.7014 H         1 UNK         0.0837 
     74 H74       -79.6202   30.7544  -70.5546 H         1 UNK         0.0685 
     75 H75       -80.4088   29.2076  -70.7173 H         1 UNK         0.0685 
     76 H76       -79.0351   27.2255  -70.9467 H         1 UNK         0.1434 
     77 H77       -74.8079   27.5981  -71.5857 H         1 UNK         0.1329 
     78 H78       -77.2993   31.0868  -71.6186 H         1 UNK         0.1335 
     79 H79       -74.9975   31.3085  -72.1725 H         1 UNK         0.0680 
     80 H80       -74.1339   29.8784  -72.6955 H         1 UNK         0.0680 
     81 H81       -72.1823   32.2602  -69.9777 H         1 UNK         0.1032 
     82 H82       -72.9392   32.4170  -71.5250 H         1 UNK         0.1032 
     83 H83       -70.5654   32.0599  -71.8370 H         1 UNK         0.0461 
     84 H84       -69.6420   31.9870  -69.5791 H         1 UNK         0.3453 
     85 H85       -68.9916   30.4606  -69.0433 H         1 UNK         0.3453 
     86 H86       -72.3925   30.1013  -72.8866 H         1 UNK         0.2984 
     87 H87       -70.7062   29.9449  -75.9446 H         1 UNK         0.0554 
     88 H88       -71.1198   27.4960  -75.8732 H         1 UNK         0.0847 
     89 H89       -71.2675   27.5465  -74.1161 H         1 UNK         0.0847 
     90 H90       -69.7274   27.9041  -74.8846 H         1 UNK         0.0847 
     91 H91       -73.1764   28.7830  -75.1979 H         1 UNK         0.3141 
     92 H92       -75.2254   30.1412  -74.8315 H         1 UNK         0.0743 
     93 H93       -76.6173   31.8432  -75.9532 H         1 UNK         0.0784 
     94 H94       -75.3423   32.6204  -75.0334 H         1 UNK         0.0784 
     95 H95       -75.2065   32.5022  -76.7824 H         1 UNK         0.0784 
     96 H96       -75.2824   30.2527  -77.7581 H         1 UNK         0.3213 
     97 H97       -76.1181   28.1954  -78.7239 H         1 UNK         0.0855 
     98 H98       -73.1265   27.4411  -78.6646 H         1 UNK         0.0814 
     99 H99       -73.7818   28.9280  -79.3371 H         1 UNK         0.0814 
    100 H100      -74.1555   27.3906  -80.0944 H         1 UNK         0.0814 
    101 H101      -75.1865   25.9909  -77.0862 H         1 UNK         0.3105 
    102 H102      -77.4179   23.7696  -78.6912 H         1 UNK         0.0547 
    103 H103      -75.3761   23.1045  -79.9043 H         1 UNK         0.0837 
    104 H104      -74.3945   23.3379  -78.4683 H         1 UNK         0.0837 
    105 H105      -75.6179   22.0669  -78.5077 H         1 UNK         0.0837 
    106 H106      -77.5820   23.8022  -76.5221 H         1 UNK         0.3020 
    107 H107      -75.3712   23.5577  -73.7850 H         1 UNK         0.1245 
    108 H108      -77.6222   25.4989  -74.5340 H         1 UNK         0.0781 
    109 H109      -76.1398   25.8679  -73.7069 H         1 UNK         0.0781 
    110 H110      -75.7043   25.4387  -71.1778 H         1 UNK         0.0836 
    111 H111      -77.0489   25.4756  -70.0645 H         1 UNK         0.0836 
    112 H112      -78.1186   22.8805  -74.5582 H         1 UNK         0.3022 
    113 H113      -77.4612   19.4562  -75.0706 H         1 UNK         0.0747 
    114 H114      -79.0265   19.0268  -73.1815 H         1 UNK         0.0793 
    115 H115      -77.4307   19.4352  -72.5751 H         1 UNK         0.0793 
    116 H116      -78.7136   20.6361  -72.5279 H         1 UNK         0.0793 
    117 H117      -79.8595   21.0339  -74.6779 H         1 UNK         0.3047 
    118 H118      -80.0914   22.2833  -77.9611 H         1 UNK         0.0822 
    119 H119      -82.2663   21.0956  -78.0573 H         1 UNK         0.0807 
    120 H120      -81.7686   20.0141  -76.7548 H         1 UNK         0.0807 
    121 H121      -80.9538   19.9590  -78.3117 H         1 UNK         0.0807 
    122 H122      -81.9957   22.3626  -75.8868 H         1 UNK         0.2946 
    123 H123      -82.2817   24.6227  -74.9782 H         1 UNK         0.1144 
    124 H124      -82.0228   24.1548  -72.5167 H         1 UNK         0.0793 
    125 H125      -80.4660   23.3870  -72.8203 H         1 UNK         0.0793 
    126 H126      -81.9448   22.6730  -73.4474 H         1 UNK         0.0793 
    127 H127      -80.2540   25.7965  -73.3064 H         1 UNK         0.2896 
@<TRIPOS>BOND
     1    1    2 1    
     2    1   67 1    
     3    1   68 1    
     4    1   69 1    
     5    2    3 2    
     6    2    4 am   BACKBONE|DICT|INTERRES
     7    4    5 1    
     8    4   70 1    
     9    5    6 1    
    10    5   65 1    
    11    5   71 1    
    12    6    7 1    
    13    6   72 1    
    14    6   73 1    
    15    7    8 1    
    16    8    9 1    
    17    8   74 1    
    18    8   75 1    
    19    9   10 ar   
    20    9   14 ar   
    21   10   11 ar   
    22   10   76 1    
    23   11   12 ar   
    24   11   48 1    
    25   12   13 ar   
    26   12   77 1    
    27   13   14 ar   
    28   13   15 1    
    29   14   78 1    
    30   15   16 1    
    31   15   79 1    
    32   15   80 1    
    33   16   17 1    
    34   17   18 1    
    35   17   81 1    
    36   17   82 1    
    37   18   19 1    
    38   18   22 1    
    39   18   83 1    
    40   19   20 am   BACKBONE|DICT|INTERRES
    41   19   21 2    
    42   20   84 1    
    43   20   85 1    
    44   22   23 am   BACKBONE|DICT|INTERRES
    45   22   86 1    
    46   23   24 2    
    47   23   25 1    
    48   25   26 1    
    49   25   27 1    
    50   25   87 1    
    51   26   88 1    
    52   26   89 1    
    53   26   90 1    
    54   27   28 am   BACKBONE|DICT|INTERRES
    55   27   91 1    
    56   28   29 2    
    57   28   30 1    
    58   30   31 1    
    59   30   32 1    
    60   30   92 1    
    61   31   93 1    
    62   31   94 1    
    63   31   95 1    
    64   32   33 am   BACKBONE|DICT|INTERRES
    65   32   96 1    
    66   33   34 2    
    67   33   35 1    
    68   35   36 1    
    69   35   37 1    
    70   35   97 1    
    71   36   98 1    
    72   36   99 1    
    73   36  100 1    
    74   37   38 am   BACKBONE|DICT|INTERRES
    75   37  101 1    
    76   38   39 2    
    77   38   40 1    
    78   40   41 1    
    79   40   42 1    
    80   40  102 1    
    81   41  103 1    
    82   41  104 1    
    83   41  105 1    
    84   42   43 am   BACKBONE|DICT|INTERRES
    85   42  106 1    
    86   43   44 2    
    87   43   45 1    
    88   45   46 1    
    89   45   49 1    
    90   45  107 1    
    91   46   47 1    
    92   46  108 1    
    93   46  109 1    
    94   47   48 1    
    95   48  110 1    
    96   48  111 1    
    97   49   50 am   BACKBONE|DICT|INTERRES
    98   49  112 1    
    99   50   51 2    
   100   50   52 1    
   101   52   53 1    
   102   52   54 1    
   103   52  113 1    
   104   53  114 1    
   105   53  115 1    
   106   53  116 1    
   107   54   55 am   BACKBONE|DICT|INTERRES
   108   54  117 1    
   109   55   56 2    
   110   55   57 1    
   111   57   58 1    
   112   57   59 1    
   113   57  118 1    
   114   58  119 1    
   115   58  120 1    
   116   58  121 1    
   117   59   60 am   BACKBONE|DICT|INTERRES
   118   59  122 1    
   119   60   61 2    
   120   60   62 1    
   121   62   63 1    
   122   62   64 1    
   123   62  123 1    
   124   63  124 1    
   125   63  125 1    
   126   63  126 1    
   127   64   65 am   BACKBONE|DICT|INTERRES
   128   64  127 1    
   129   65   66 2    
@<TRIPOS>SUBSTRUCTURE
     1 UNK         1 GROUP             0       ****    0 ROOT    
