@<TRIPOS>MOLECULE
3R135
127   129    1
SMALL
USER_CHARGES


@<TRIPOS>ATOM
      1 CA        -83.9660   31.7020  -75.3729 C.3       0 UNK        -0.1998 
      2 C         -83.0665   30.4824  -75.2435 C.2       0 UNK         0.4909 
      3 O         -83.5319   29.4218  -74.8248 O.2       0 UNK        -0.5240 
      4 N         -81.7859   30.6187  -75.6175 N.am      1 UNK        -0.4739 
      5 CA        -80.7142   29.6091  -75.5687 C.3       1 UNK         0.0864 
      6 C6        -80.4821   29.0424  -74.1411 C.3       11 UNK        -0.0881 
      7 S7        -78.7972   28.3924  -73.9108 S.3       11 UNK        -0.2682 
      8 C8        -78.9122   27.7583  -72.2062 C.3       11 UNK         0.0289 
      9 C9        -77.6428   27.0516  -71.7362 C.ar      11 UNK        -0.0687 
     10 C10       -77.7388   25.8653  -71.0004 C.ar      11 UNK        -0.0823 
     11 C11       -76.5904   25.2282  -70.5194 C.ar      11 UNK        -0.0830 
     12 C12       -75.3343   25.7844  -70.7834 C.ar      11 UNK        -0.1021 
     13 C13       -75.2203   26.9591  -71.5305 C.ar      11 UNK        -0.0753 
     14 C14       -76.3774   27.5881  -71.9994 C.ar      11 UNK        -0.0933 
     15 C15       -73.8516   27.5447  -71.8469 C.3       11 UNK         0.0166 
     16 S16       -73.6585   29.2155  -71.1475 S.3       11 UNK        -0.2615 
     17 C17       -72.3216   29.9061  -72.1828 C.3       11 UNK        -0.0865 
     18 CA        -72.8806   30.6972  -73.3985 C.3       10 UNK         0.0862 
     19 C         -71.8152   31.6273  -74.0509 C.2       10 UNK         0.5551 
     20 N         -71.7042   31.6969  -75.3735 N.am      10 UNK        -0.7319 
     21 O         -71.0904   32.3255  -73.3457 O.2       10 UNK        -0.5018 
     22 N         -73.4902   29.7822  -74.3703 N.am      10 UNK        -0.4509 
     23 C         -74.7375   29.8472  -74.8499 C.2       10 UNK         0.4899 
     24 O         -75.5640   30.6900  -74.4986 O.2       10 UNK        -0.4839 
     25 CA        -75.1260   28.7796  -75.8968 C.3       9 UNK         0.0222 
     26 CB        -76.2528   29.2513  -76.8404 C.3       9 UNK        -0.1966 
     27 N         -73.9816   28.2636  -76.6642 N.am      9 UNK        -0.4218 
     28 C         -73.1383   28.9819  -77.4270 C.2       9 UNK         0.5020 
     29 O         -73.2685   30.1904  -77.6324 O.2       9 UNK        -0.5274 
     30 CA        -71.9127   28.2433  -78.0107 C.3       8 UNK         0.0270 
     31 CB        -70.7555   29.2056  -78.3552 C.3       8 UNK        -0.1976 
     32 N         -71.4177   27.1466  -77.1666 N.am      8 UNK        -0.4313 
     33 C         -71.0724   27.2069  -75.8705 C.2       8 UNK         0.5041 
     34 O         -71.1202   28.2370  -75.1956 O.2       8 UNK        -0.5577 
     35 CA        -70.6605   25.8743  -75.2108 C.3       7 UNK         0.0284 
     36 CB        -70.7533   25.9298  -73.6716 C.3       7 UNK        -0.1958 
     37 N         -71.3942   24.6984  -75.7076 N.am      7 UNK        -0.4454 
     38 C         -72.7260   24.5386  -75.7723 C.2       7 UNK         0.5089 
     39 O         -73.5377   25.4411  -75.5478 O.2       7 UNK        -0.5125 
     40 CA        -73.2588   23.1457  -76.1732 C.3       6 UNK         0.0408 
     41 CB        -72.1789   22.0457  -76.2940 C.3       6 UNK        -0.1791 
     42 N         -74.3387   22.7334  -75.2709 N.am      6 UNK        -0.4762 
     43 C         -74.2597   22.5588  -73.9415 C.2       6 UNK         0.5007 
     44 O         -73.1956   22.5245  -73.3202 O.2       6 UNK        -0.5032 
     45 CA        -75.6028   22.4777  -73.1813 C.3       5 UNK         0.0783 
     46 C46       -75.4046   22.3736  -71.6442 C.3       11 UNK        -0.0857 
     47 S47       -76.9687   22.4661  -70.7051 S.3       11 UNK        -0.2512 
     48 C48       -76.7091   23.9569  -69.6869 C.3       11 UNK         0.0225 
     49 N         -76.4465   23.6166  -73.5658 N.am      5 UNK        -0.4615 
     50 C         -77.2742   23.6302  -74.6151 C.2       4 UNK         0.5053 
     51 O         -77.4344   22.6696  -75.3714 O.2       4 UNK        -0.5105 
     52 CA        -77.9715   24.9577  -74.9265 C.3       4 UNK         0.0263 
     53 CB        -77.3058   25.6389  -76.1321 C.3       4 UNK        -0.1981 
     54 N         -79.3912   24.7622  -75.2086 N.am      4 UNK        -0.4224 
     55 C         -80.3198   24.4762  -74.2881 C.2       3 UNK         0.4895 
     56 O         -80.0778   24.3754  -73.0844 O.2       3 UNK        -0.5091 
     57 CA        -81.7634   24.3046  -74.7998 C.3       3 UNK         0.0250 
     58 CB        -82.7855   24.1678  -73.6552 C.3       3 UNK        -0.1996 
     59 N         -82.1601   25.4276  -75.6520 N.am      3 UNK        -0.4254 
     60 C         -81.9641   25.5087  -76.9752 C.2       2 UNK         0.5004 
     61 O         -81.4316   24.6224  -77.6432 O.2       2 UNK        -0.5226 
     62 CA        -82.3930   26.8204  -77.6517 C.3       2 UNK         0.0269 
     63 CB        -83.8939   26.8008  -77.9821 C.3       2 UNK        -0.1926 
     64 N         -82.0927   27.9798  -76.8095 N.am      2 UNK        -0.4687 
     65 C         -80.8666   28.4828  -76.6174 C.2       1 UNK         0.5165 
     66 O         -79.8778   28.0983  -77.2422 O.2       1 UNK        -0.5079 
     67 H67       -84.3809   31.9655  -74.4004 H         1 UNK         0.0900 
     68 H68       -84.7927   31.4878  -76.0496 H         1 UNK         0.0900 
     69 H69       -83.4276   32.5680  -75.7577 H         1 UNK         0.0900 
     70 H70       -81.4926   31.5138  -75.9855 H         1 UNK         0.2959 
     71 H71       -79.8148   30.1587  -75.8529 H         1 UNK         0.1079 
     72 H72       -81.2095   28.2654  -73.8984 H         1 UNK         0.0837 
     73 H73       -80.6254   29.8313  -73.4010 H         1 UNK         0.0837 
     74 H74       -79.1233   28.5874  -71.5299 H         1 UNK         0.0685 
     75 H75       -79.7644   27.0792  -72.1486 H         1 UNK         0.0685 
     76 H76       -78.7111   25.4375  -70.7940 H         1 UNK         0.1434 
     77 H77       -74.4423   25.3029  -70.4065 H         1 UNK         0.1329 
     78 H78       -76.2891   28.5073  -72.5621 H         1 UNK         0.1335 
     79 H79       -73.7288   27.5641  -72.9294 H         1 UNK         0.0680 
     80 H80       -73.0549   26.9101  -71.4567 H         1 UNK         0.0680 
     81 H81       -71.6464   29.1127  -72.5095 H         1 UNK         0.1032 
     82 H82       -71.7297   30.5564  -71.5363 H         1 UNK         0.1032 
     83 H83       -73.6415   31.3821  -73.0205 H         1 UNK         0.0461 
     84 H84       -72.3053   31.1472  -75.9747 H         1 UNK         0.3453 
     85 H85       -71.0157   32.3112  -75.7770 H         1 UNK         0.3453 
     86 H86       -72.8451   29.0981  -74.7568 H         1 UNK         0.2984 
     87 H87       -75.5079   27.9357  -75.3216 H         1 UNK         0.0554 
     88 H88       -77.1577   29.4899  -76.2807 H         1 UNK         0.0847 
     89 H89       -76.5183   28.4787  -77.5616 H         1 UNK         0.0847 
     90 H90       -75.9690   30.1461  -77.3948 H         1 UNK         0.0847 
     91 H91       -73.7585   27.2865  -76.4961 H         1 UNK         0.3141 
     92 H92       -72.2536   27.7871  -78.9411 H         1 UNK         0.0743 
     93 H93       -71.0699   29.9585  -79.0791 H         1 UNK         0.0784 
     94 H94       -70.3952   29.7330  -77.4710 H         1 UNK         0.0784 
     95 H95       -69.9123   28.6717  -78.7932 H         1 UNK         0.0784 
     96 H96       -71.3665   26.2414  -77.6134 H         1 UNK         0.3213 
     97 H97       -69.6124   25.7236  -75.4738 H         1 UNK         0.0855 
     98 H98       -70.1532   26.7447  -73.2646 H         1 UNK         0.0814 
     99 H99       -70.3921   25.0063  -73.2192 H         1 UNK         0.0814 
    100 H100      -71.7805   26.0808  -73.3423 H         1 UNK         0.0814 
    101 H101      -70.8214   23.8993  -75.9415 H         1 UNK         0.3105 
    102 H102      -73.7152   23.2685  -77.1563 H         1 UNK         0.0547 
    103 H103      -71.4597   22.2803  -77.0796 H         1 UNK         0.0837 
    104 H104      -71.6248   21.9028  -75.3657 H         1 UNK         0.0837 
    105 H105      -72.6276   21.0876  -76.5565 H         1 UNK         0.0837 
    106 H106      -75.2703   22.7584  -75.6690 H         1 UNK         0.3020 
    107 H107      -76.0882   21.5531  -73.5028 H         1 UNK         0.1245 
    108 H108      -74.7219   23.1437  -71.2863 H         1 UNK         0.0781 
    109 H109      -74.9261   21.4242  -71.3973 H         1 UNK         0.0781 
    110 H110      -75.8216   23.8191  -69.0670 H         1 UNK         0.0836 
    111 H111      -77.5455   24.0561  -68.9935 H         1 UNK         0.0836 
    112 H112      -76.3570   24.4443  -72.9923 H         1 UNK         0.3022 
    113 H113      -77.8763   25.6141  -74.0625 H         1 UNK         0.0747 
    114 H114      -76.2361   25.7681  -75.9658 H         1 UNK         0.0793 
    115 H115      -77.4240   25.0540  -77.0450 H         1 UNK         0.0793 
    116 H116      -77.7302   26.6270  -76.3089 H         1 UNK         0.0793 
    117 H117      -79.6742   24.7909  -76.1794 H         1 UNK         0.3047 
    118 H118      -81.7897   23.3800  -75.3807 H         1 UNK         0.0822 
    119 H119      -83.7948   24.0205  -74.0400 H         1 UNK         0.0807 
    120 H120      -82.7953   25.0506  -73.0146 H         1 UNK         0.0807 
    121 H121      -82.5535   23.3088  -73.0240 H         1 UNK         0.0807 
    122 H122      -82.5671   26.2243  -75.1839 H         1 UNK         0.2946 
    123 H123      -81.8350   26.9111  -78.5869 H         1 UNK         0.1144 
    124 H124      -84.1920   27.7015  -78.5191 H         1 UNK         0.0793 
    125 H125      -84.5072   26.7287  -77.0829 H         1 UNK         0.0793 
    126 H126      -84.1422   25.9488  -78.6167 H         1 UNK         0.0793 
    127 H127      -82.8439   28.3634  -76.2416 H         1 UNK         0.2896 
@<TRIPOS>BOND
     1    1    2 1    
     2    1   67 1    
     3    1   68 1    
     4    1   69 1    
     5    2    3 2    
     6    2    4 am   BACKBONE|DICT|INTERRES
     7    4    5 1    
     8    4   70 1    
     9    5    6 1    
    10    5   65 1    
    11    5   71 1    
    12    6    7 1    
    13    6   72 1    
    14    6   73 1    
    15    7    8 1    
    16    8    9 1    
    17    8   74 1    
    18    8   75 1    
    19    9   10 ar   
    20    9   14 ar   
    21   10   11 ar   
    22   10   76 1    
    23   11   12 ar   
    24   11   48 1    
    25   12   13 ar   
    26   12   77 1    
    27   13   14 ar   
    28   13   15 1    
    29   14   78 1    
    30   15   16 1    
    31   15   79 1    
    32   15   80 1    
    33   16   17 1    
    34   17   18 1    
    35   17   81 1    
    36   17   82 1    
    37   18   19 1    
    38   18   22 1    
    39   18   83 1    
    40   19   20 am   BACKBONE|DICT|INTERRES
    41   19   21 2    
    42   20   84 1    
    43   20   85 1    
    44   22   23 am   BACKBONE|DICT|INTERRES
    45   22   86 1    
    46   23   24 2    
    47   23   25 1    
    48   25   26 1    
    49   25   27 1    
    50   25   87 1    
    51   26   88 1    
    52   26   89 1    
    53   26   90 1    
    54   27   28 am   BACKBONE|DICT|INTERRES
    55   27   91 1    
    56   28   29 2    
    57   28   30 1    
    58   30   31 1    
    59   30   32 1    
    60   30   92 1    
    61   31   93 1    
    62   31   94 1    
    63   31   95 1    
    64   32   33 am   BACKBONE|DICT|INTERRES
    65   32   96 1    
    66   33   34 2    
    67   33   35 1    
    68   35   36 1    
    69   35   37 1    
    70   35   97 1    
    71   36   98 1    
    72   36   99 1    
    73   36  100 1    
    74   37   38 am   BACKBONE|DICT|INTERRES
    75   37  101 1    
    76   38   39 2    
    77   38   40 1    
    78   40   41 1    
    79   40   42 1    
    80   40  102 1    
    81   41  103 1    
    82   41  104 1    
    83   41  105 1    
    84   42   43 am   BACKBONE|DICT|INTERRES
    85   42  106 1    
    86   43   44 2    
    87   43   45 1    
    88   45   46 1    
    89   45   49 1    
    90   45  107 1    
    91   46   47 1    
    92   46  108 1    
    93   46  109 1    
    94   47   48 1    
    95   48  110 1    
    96   48  111 1    
    97   49   50 am   BACKBONE|DICT|INTERRES
    98   49  112 1    
    99   50   51 2    
   100   50   52 1    
   101   52   53 1    
   102   52   54 1    
   103   52  113 1    
   104   53  114 1    
   105   53  115 1    
   106   53  116 1    
   107   54   55 am   BACKBONE|DICT|INTERRES
   108   54  117 1    
   109   55   56 2    
   110   55   57 1    
   111   57   58 1    
   112   57   59 1    
   113   57  118 1    
   114   58  119 1    
   115   58  120 1    
   116   58  121 1    
   117   59   60 am   BACKBONE|DICT|INTERRES
   118   59  122 1    
   119   60   61 2    
   120   60   62 1    
   121   62   63 1    
   122   62   64 1    
   123   62  123 1    
   124   63  124 1    
   125   63  125 1    
   126   63  126 1    
   127   64   65 am   BACKBONE|DICT|INTERRES
   128   64  127 1    
   129   65   66 2    
@<TRIPOS>SUBSTRUCTURE
     1 UNK         1 GROUP             0       ****    0 ROOT    
