@<TRIPOS>MOLECULE
3R135
127   129    1
SMALL
USER_CHARGES


@<TRIPOS>ATOM
      1 CA        -78.7689   21.0936  -74.3624 C.3       0 UNK        -0.1998 
      2 C         -78.6183   22.1180  -73.2488 C.2       0 UNK         0.4909 
      3 O         -78.5918   21.7488  -72.0749 O.2       0 UNK        -0.5240 
      4 N         -78.5549   23.4058  -73.6064 N.am      1 UNK        -0.4739 
      5 CA        -78.5063   24.5455  -72.6798 C.3       1 UNK         0.0864 
      6 C6        -77.7028   25.7325  -73.2723 C.3       11 UNK        -0.0881 
      7 S7        -76.0072   25.2960  -73.7958 S.3       11 UNK        -0.2682 
      8 C8        -75.0434   26.7144  -73.1743 C.3       11 UNK         0.0289 
      9 C9        -75.5932   28.0454  -73.6669 C.ar      11 UNK        -0.0687 
     10 C10       -75.5368   28.3765  -75.0219 C.ar      11 UNK        -0.0823 
     11 C11       -76.1017   29.5675  -75.4864 C.ar      11 UNK        -0.0830 
     12 C12       -76.6750   30.4584  -74.5719 C.ar      11 UNK        -0.1021 
     13 C13       -76.6997   30.1595  -73.2057 C.ar      11 UNK        -0.0753 
     14 C14       -76.1728   28.9404  -72.7656 C.ar      11 UNK        -0.0933 
     15 C15       -77.3446   31.1317  -72.2224 C.3       11 UNK         0.0166 
     16 S16       -76.4223   31.3032  -70.6558 S.3       11 UNK        -0.2615 
     17 C17       -75.1281   32.5319  -71.0583 C.3       11 UNK        -0.0865 
     18 CA        -73.7263   31.9662  -71.4242 C.3       10 UNK         0.0862 
     19 C         -73.1551   30.9484  -70.3898 C.2       10 UNK         0.5551 
     20 N         -72.7199   29.7572  -70.7875 N.am      10 UNK        -0.7319 
     21 O         -73.0859   31.2578  -69.2026 O.2       10 UNK        -0.5018 
     22 N         -73.6768   31.5170  -72.8214 N.am      10 UNK        -0.4509 
     23 C         -72.5740   31.5227  -73.5788 C.2       10 UNK         0.4899 
     24 O         -71.4822   31.9700  -73.2216 O.2       10 UNK        -0.4839 
     25 CA        -72.7266   30.9411  -74.9906 C.3       9 UNK         0.0222 
     26 CB        -72.6691   32.0516  -76.0517 C.3       9 UNK        -0.1966 
     27 N         -71.7375   29.9086  -75.3022 N.am      9 UNK        -0.4218 
     28 C         -71.5375   28.7822  -74.6038 C.2       9 UNK         0.5020 
     29 O         -72.1056   28.5044  -73.5438 O.2       9 UNK        -0.5274 
     30 CA        -70.5012   27.8082  -75.1924 C.3       8 UNK         0.0270 
     31 CB        -69.1353   28.0079  -74.5152 C.3       8 UNK        -0.1976 
     32 N         -70.9008   26.4032  -75.0658 N.am      8 UNK        -0.4313 
     33 C         -72.0046   25.8585  -75.5959 C.2       8 UNK         0.5041 
     34 O         -72.8208   26.4844  -76.2788 O.2       8 UNK        -0.5577 
     35 CA        -72.2142   24.3565  -75.3406 C.3       7 UNK         0.0284 
     36 CB        -72.1600   23.9944  -73.8433 C.3       7 UNK        -0.1958 
     37 N         -73.5115   23.9538  -75.8773 N.am      7 UNK        -0.4454 
     38 C         -73.7515   22.8918  -76.6521 C.2       7 UNK         0.5089 
     39 O         -72.8927   22.0698  -76.9750 O.2       7 UNK        -0.5125 
     40 CA        -75.1980   22.6990  -77.1464 C.3       6 UNK         0.0408 
     41 CB        -75.8901   21.5915  -76.3396 C.3       6 UNK        -0.1791 
     42 N         -76.0115   23.9171  -77.0731 N.am      6 UNK        -0.4762 
     43 C         -75.9291   24.9488  -77.9216 C.2       6 UNK         0.5007 
     44 O         -75.1923   24.9533  -78.9096 O.2       6 UNK        -0.5032 
     45 CA        -76.8397   26.1619  -77.6262 C.3       5 UNK         0.0783 
     46 C46       -76.3413   27.4379  -78.3555 C.3       11 UNK        -0.0857 
     47 S47       -77.2832   28.9413  -77.9195 S.3       11 UNK        -0.2512 
     48 C48       -76.0633   29.9072  -76.9692 C.3       11 UNK         0.0225 
     49 N         -78.2409   25.8656  -77.9411 N.am      5 UNK        -0.4615 
     50 C         -79.0554   25.0948  -77.2120 C.2       4 UNK         0.5053 
     51 O         -78.7061   24.4870  -76.1976 O.2       4 UNK        -0.5105 
     52 CA        -80.5131   24.9866  -77.6825 C.3       4 UNK         0.0263 
     53 CB        -80.9150   23.5158  -77.8823 C.3       4 UNK        -0.1981 
     54 N         -81.4084   25.6005  -76.7028 N.am      4 UNK        -0.4224 
     55 C         -81.5175   26.9137  -76.4659 C.2       3 UNK         0.4895 
     56 O         -80.9399   27.7725  -77.1322 O.2       3 UNK        -0.5091 
     57 CA        -82.4081   27.3617  -75.2890 C.3       3 UNK         0.0250 
     58 CB        -83.8678   27.5639  -75.7417 C.3       3 UNK        -0.1996 
     59 N         -82.3206   26.5137  -74.0882 N.am      3 UNK        -0.4254 
     60 C         -82.7327   25.2492  -73.9191 C.2       2 UNK         0.5004 
     61 O         -83.2767   24.5779  -74.7978 O.2       2 UNK        -0.5226 
     62 CA        -82.3688   24.5981  -72.5768 C.3       2 UNK         0.0269 
     63 CB        -83.2077   23.3407  -72.2826 C.3       2 UNK        -0.1926 
     64 N         -80.9583   24.2244  -72.6345 N.am      2 UNK        -0.4687 
     65 C         -79.9300   25.0085  -72.2832 C.2       1 UNK         0.5165 
     66 O         -80.0854   26.0897  -71.7128 O.2       1 UNK        -0.5079 
     67 H67       -77.9044   20.4310  -74.3850 H         1 UNK         0.0900 
     68 H68       -78.8672   21.5691  -75.3383 H         1 UNK         0.0900 
     69 H69       -79.6575   20.4859  -74.1945 H         1 UNK         0.0900 
     70 H70       -78.5958   23.6689  -74.5906 H         1 UNK         0.2959 
     71 H71       -78.0104   24.2346  -71.7577 H         1 UNK         0.1079 
     72 H72       -78.2192   26.1610  -74.1334 H         1 UNK         0.0837 
     73 H73       -77.6418   26.5316  -72.5322 H         1 UNK         0.0837 
     74 H74       -75.0222   26.6801  -72.0841 H         1 UNK         0.0685 
     75 H75       -74.0100   26.6162  -73.5035 H         1 UNK         0.0685 
     76 H76       -75.0638   27.6956  -75.7141 H         1 UNK         0.1434 
     77 H77       -77.1055   31.3856  -74.9255 H         1 UNK         0.1329 
     78 H78       -76.2178   28.6835  -71.7163 H         1 UNK         0.1335 
     79 H79       -78.3445   30.7623  -71.9914 H         1 UNK         0.0680 
     80 H80       -77.4787   32.1162  -72.6732 H         1 UNK         0.0680 
     81 H81       -75.0264   33.1728  -70.1807 H         1 UNK         0.1032 
     82 H82       -75.4844   33.1954  -71.8477 H         1 UNK         0.1032 
     83 H83       -73.0493   32.8203  -71.3573 H         1 UNK         0.0461 
     84 H84       -72.7250   29.4954  -71.7666 H         1 UNK         0.3453 
     85 H85       -72.3479   29.1186  -70.1036 H         1 UNK         0.3453 
     86 H86       -74.5189   31.0813  -73.1734 H         1 UNK         0.2984 
     87 H87       -73.7005   30.4663  -75.0584 H         1 UNK         0.0554 
     88 H88       -72.8683   31.6610  -77.0498 H         1 UNK         0.0847 
     89 H89       -71.6953   32.5430  -76.0689 H         1 UNK         0.0847 
     90 H90       -73.4175   32.8198  -75.8521 H         1 UNK         0.0847 
     91 H91       -71.1866   30.0583  -76.1347 H         1 UNK         0.3141 
     92 H92       -70.3927   28.0163  -76.2589 H         1 UNK         0.0743 
     93 H93       -69.1790   27.7837  -73.4484 H         1 UNK         0.0784 
     94 H94       -68.3708   27.3725  -74.9628 H         1 UNK         0.0784 
     95 H95       -68.7961   29.0399  -74.6159 H         1 UNK         0.0784 
     96 H96       -70.3013   25.8202  -74.5009 H         1 UNK         0.3213 
     97 H97       -71.4130   23.8299  -75.8636 H         1 UNK         0.0855 
     98 H98       -72.9060   24.5397  -73.2656 H         1 UNK         0.0814 
     99 H99       -71.1841   24.2128  -73.4094 H         1 UNK         0.0814 
    100 H100      -72.3417   22.9302  -73.6919 H         1 UNK         0.0814 
    101 H101      -74.2634   24.6118  -75.7218 H         1 UNK         0.3105 
    102 H102      -75.1479   22.3779  -78.1889 H         1 UNK         0.0547 
    103 H103      -75.3189   20.6629  -76.3774 H         1 UNK         0.0837 
    104 H104      -75.9949   21.8678  -75.2897 H         1 UNK         0.0837 
    105 H105      -76.8807   21.3755  -76.7389 H         1 UNK         0.0837 
    106 H106      -76.7055   23.9691  -76.3348 H         1 UNK         0.3020 
    107 H107      -76.7808   26.3501  -76.5528 H         1 UNK         0.1245 
    108 H108      -76.4119   27.3081  -79.4371 H         1 UNK         0.0781 
    109 H109      -75.2825   27.6038  -78.1478 H         1 UNK         0.0781 
    110 H110      -76.2796   30.9665  -77.1152 H         1 UNK         0.0836 
    111 H111      -75.0578   29.7548  -77.3639 H         1 UNK         0.0836 
    112 H112      -78.6165   26.3420  -78.7479 H         1 UNK         0.3022 
    113 H113      -80.6278   25.5077  -78.6354 H         1 UNK         0.0747 
    114 H114      -81.9342   23.4318  -78.2600 H         1 UNK         0.0793 
    115 H115      -80.2595   23.0267  -78.6040 H         1 UNK         0.0793 
    116 H116      -80.8561   22.9494  -76.9516 H         1 UNK         0.0793 
    117 H117      -81.9502   24.9770  -76.1112 H         1 UNK         0.3047 
    118 H118      -82.0300   28.3371  -74.9779 H         1 UNK         0.0822 
    119 H119      -84.4859   27.9465  -74.9295 H         1 UNK         0.0807 
    120 H120      -84.3189   26.6381  -76.0998 H         1 UNK         0.0807 
    121 H121      -83.9234   28.2850  -76.5582 H         1 UNK         0.0807 
    122 H122      -81.8174   26.9319  -73.3157 H         1 UNK         0.2946 
    123 H123      -82.5449   25.3218  -71.7772 H         1 UNK         0.1144 
    124 H124      -82.9528   22.9151  -71.3119 H         1 UNK         0.0793 
    125 H125      -83.0609   22.5649  -73.0353 H         1 UNK         0.0793 
    126 H126      -84.2719   23.5793  -72.2628 H         1 UNK         0.0793 
    127 H127      -80.7400   23.3695  -73.1253 H         1 UNK         0.2896 
@<TRIPOS>BOND
     1    1    2 1    
     2    1   67 1    
     3    1   68 1    
     4    1   69 1    
     5    2    3 2    
     6    2    4 am   BACKBONE|DICT|INTERRES
     7    4    5 1    
     8    4   70 1    
     9    5    6 1    
    10    5   65 1    
    11    5   71 1    
    12    6    7 1    
    13    6   72 1    
    14    6   73 1    
    15    7    8 1    
    16    8    9 1    
    17    8   74 1    
    18    8   75 1    
    19    9   10 ar   
    20    9   14 ar   
    21   10   11 ar   
    22   10   76 1    
    23   11   12 ar   
    24   11   48 1    
    25   12   13 ar   
    26   12   77 1    
    27   13   14 ar   
    28   13   15 1    
    29   14   78 1    
    30   15   16 1    
    31   15   79 1    
    32   15   80 1    
    33   16   17 1    
    34   17   18 1    
    35   17   81 1    
    36   17   82 1    
    37   18   19 1    
    38   18   22 1    
    39   18   83 1    
    40   19   20 am   BACKBONE|DICT|INTERRES
    41   19   21 2    
    42   20   84 1    
    43   20   85 1    
    44   22   23 am   BACKBONE|DICT|INTERRES
    45   22   86 1    
    46   23   24 2    
    47   23   25 1    
    48   25   26 1    
    49   25   27 1    
    50   25   87 1    
    51   26   88 1    
    52   26   89 1    
    53   26   90 1    
    54   27   28 am   BACKBONE|DICT|INTERRES
    55   27   91 1    
    56   28   29 2    
    57   28   30 1    
    58   30   31 1    
    59   30   32 1    
    60   30   92 1    
    61   31   93 1    
    62   31   94 1    
    63   31   95 1    
    64   32   33 am   BACKBONE|DICT|INTERRES
    65   32   96 1    
    66   33   34 2    
    67   33   35 1    
    68   35   36 1    
    69   35   37 1    
    70   35   97 1    
    71   36   98 1    
    72   36   99 1    
    73   36  100 1    
    74   37   38 am   BACKBONE|DICT|INTERRES
    75   37  101 1    
    76   38   39 2    
    77   38   40 1    
    78   40   41 1    
    79   40   42 1    
    80   40  102 1    
    81   41  103 1    
    82   41  104 1    
    83   41  105 1    
    84   42   43 am   BACKBONE|DICT|INTERRES
    85   42  106 1    
    86   43   44 2    
    87   43   45 1    
    88   45   46 1    
    89   45   49 1    
    90   45  107 1    
    91   46   47 1    
    92   46  108 1    
    93   46  109 1    
    94   47   48 1    
    95   48  110 1    
    96   48  111 1    
    97   49   50 am   BACKBONE|DICT|INTERRES
    98   49  112 1    
    99   50   51 2    
   100   50   52 1    
   101   52   53 1    
   102   52   54 1    
   103   52  113 1    
   104   53  114 1    
   105   53  115 1    
   106   53  116 1    
   107   54   55 am   BACKBONE|DICT|INTERRES
   108   54  117 1    
   109   55   56 2    
   110   55   57 1    
   111   57   58 1    
   112   57   59 1    
   113   57  118 1    
   114   58  119 1    
   115   58  120 1    
   116   58  121 1    
   117   59   60 am   BACKBONE|DICT|INTERRES
   118   59  122 1    
   119   60   61 2    
   120   60   62 1    
   121   62   63 1    
   122   62   64 1    
   123   62  123 1    
   124   63  124 1    
   125   63  125 1    
   126   63  126 1    
   127   64   65 am   BACKBONE|DICT|INTERRES
   128   64  127 1    
   129   65   66 2    
@<TRIPOS>SUBSTRUCTURE
     1 UNK         1 GROUP             0       ****    0 ROOT    
