@<TRIPOS>MOLECULE
3R135
127   129    1
SMALL
USER_CHARGES


@<TRIPOS>ATOM
      1 CA        -77.1902   22.0551  -74.9011 C.3       0 UNK        -0.1998 
      2 C         -77.5824   22.6733  -73.5679 C.2       0 UNK         0.4909 
      3 O         -77.2442   22.1306  -72.5160 O.2       0 UNK        -0.5240 
      4 N         -78.2972   23.8022  -73.6088 N.am      1 UNK        -0.4739 
      5 CA        -78.8794   24.4721  -72.4438 C.3       1 UNK         0.0864 
      6 C6        -78.9908   25.9957  -72.6884 C.3       11 UNK        -0.0881 
      7 S7        -79.2102   26.9510  -71.1538 S.3       11 UNK        -0.2682 
      8 C8        -79.6572   28.5858  -71.8282 C.3       11 UNK         0.0289 
      9 C9        -78.5844   29.1600  -72.7473 C.ar      11 UNK        -0.0687 
     10 C10       -78.9165   29.5935  -74.0353 C.ar      11 UNK        -0.0823 
     11 C11       -77.9362   30.1191  -74.8842 C.ar      11 UNK        -0.0830 
     12 C12       -76.6142   30.2083  -74.4348 C.ar      11 UNK        -0.1021 
     13 C13       -76.2738   29.7915  -73.1450 C.ar      11 UNK        -0.0753 
     14 C14       -77.2625   29.2732  -72.3060 C.ar      11 UNK        -0.0933 
     15 C15       -74.8411   29.9010  -72.6511 C.3       11 UNK         0.0166 
     16 S16       -74.5463   31.5005  -71.8390 S.3       11 UNK        -0.2615 
     17 C17       -72.8946   31.2287  -71.1089 C.3       11 UNK        -0.0865 
     18 CA        -71.7543   31.8996  -71.9187 C.3       10 UNK         0.0862 
     19 C         -70.4126   31.8605  -71.1273 C.2       10 UNK         0.5551 
     20 N         -69.3561   31.2332  -71.6306 N.am      10 UNK        -0.7319 
     21 O         -70.3292   32.4174  -70.0354 O.2       10 UNK        -0.5018 
     22 N         -71.6755   31.3566  -73.2843 N.am      10 UNK        -0.4509 
     23 C         -71.1084   31.9613  -74.3322 C.2       10 UNK         0.4899 
     24 O         -70.5936   33.0795  -74.2822 O.2       10 UNK        -0.4839 
     25 CA        -71.1001   31.1586  -75.6486 C.3       9 UNK         0.0222 
     26 CB        -70.5231   31.9629  -76.8289 C.3       9 UNK        -0.1966 
     27 N         -70.3567   29.9002  -75.5208 N.am      9 UNK        -0.4218 
     28 C         -70.8110   28.7890  -74.9280 C.2       9 UNK         0.5020 
     29 O         -71.9128   28.7041  -74.3793 O.2       9 UNK        -0.5274 
     30 CA        -69.8639   27.5848  -74.8938 C.3       8 UNK         0.0270 
     31 CB        -69.2661   27.4128  -73.4873 C.3       8 UNK        -0.1976 
     32 N         -70.6211   26.3868  -75.2468 N.am      8 UNK        -0.4313 
     33 C         -70.7125   25.8811  -76.4828 C.2       8 UNK         0.5041 
     34 O         -70.0567   26.2897  -77.4425 O.2       8 UNK        -0.5577 
     35 CA        -71.7097   24.7265  -76.6915 C.3       7 UNK         0.0284 
     36 CB        -71.0050   23.3701  -76.5255 C.3       7 UNK        -0.1958 
     37 N         -72.8734   24.7835  -75.7988 N.am      7 UNK        -0.4454 
     38 C         -73.8294   25.7208  -75.8572 C.2       7 UNK         0.5089 
     39 O         -73.8292   26.6549  -76.6629 O.2       7 UNK        -0.5125 
     40 CA        -74.9589   25.5956  -74.8172 C.3       6 UNK         0.0408 
     41 CB        -74.5171   26.1889  -73.4702 C.3       6 UNK        -0.1791 
     42 N         -76.1856   26.2692  -75.2467 N.am      6 UNK        -0.4762 
     43 C         -76.9551   25.8759  -76.2702 C.2       6 UNK         0.5007 
     44 O         -76.7410   24.8623  -76.9403 O.2       6 UNK        -0.5032 
     45 CA        -78.1566   26.7867  -76.5934 C.3       5 UNK         0.0783 
     46 C46       -77.6868   28.0653  -77.3301 C.3       11 UNK        -0.0857 
     47 S47       -79.0045   29.3249  -77.3502 S.3       11 UNK        -0.2512 
     48 C48       -78.3049   30.6225  -76.2761 C.3       11 UNK         0.0225 
     49 N         -79.1874   26.0845  -77.3658 N.am      5 UNK        -0.4615 
     50 C         -79.9478   25.0789  -76.9223 C.2       4 UNK         0.5053 
     51 O         -79.9083   24.6330  -75.7706 O.2       4 UNK        -0.5105 
     52 CA        -80.8940   24.4534  -77.9550 C.3       4 UNK         0.0263 
     53 CB        -80.1321   23.4711  -78.8608 C.3       4 UNK        -0.1981 
     54 N         -81.9480   23.7305  -77.2521 N.am      4 UNK        -0.4224 
     55 C         -83.2647   23.8546  -77.4563 C.2       3 UNK         0.4895 
     56 O         -83.7598   24.5335  -78.3570 O.2       3 UNK        -0.5091 
     57 CA        -84.1963   23.0931  -76.4911 C.3       3 UNK         0.0250 
     58 CB        -84.7607   21.8344  -77.1706 C.3       3 UNK        -0.1996 
     59 N         -83.5468   22.7074  -75.2322 N.am      3 UNK        -0.4254 
     60 C         -83.1803   23.5631  -74.2676 C.2       2 UNK         0.5004 
     61 O         -83.4168   24.7714  -74.3022 O.2       2 UNK        -0.5226 
     62 CA        -82.3747   22.9981  -73.0910 C.3       2 UNK         0.0269 
     63 CB        -82.2733   21.4570  -73.0515 C.3       2 UNK        -0.1926 
     64 N         -81.0393   23.5814  -73.1609 N.am      2 UNK        -0.4687 
     65 C         -80.2482   23.8450  -72.1143 C.2       1 UNK         0.5165 
     66 O         -80.5470   23.5899  -70.9464 O.2       1 UNK        -0.5079 
     67 H67       -77.6715   22.5597  -75.7391 H         1 UNK         0.0900 
     68 H68       -77.4808   21.0053  -74.9292 H         1 UNK         0.0900 
     69 H69       -76.1116   22.1158  -75.0421 H         1 UNK         0.0900 
     70 H70       -78.6136   24.1533  -74.5091 H         1 UNK         0.2959 
     71 H71       -78.2231   24.3096  -71.5855 H         1 UNK         0.1079 
     72 H72       -78.0713   26.3562  -73.1498 H         1 UNK         0.0837 
     73 H73       -79.7942   26.2308  -73.3899 H         1 UNK         0.0837 
     74 H74       -80.6119   28.5001  -72.3497 H         1 UNK         0.0685 
     75 H75       -79.8184   29.2768  -70.9999 H         1 UNK         0.0685 
     76 H76       -79.9390   29.5255  -74.3817 H         1 UNK         0.1434 
     77 H77       -75.8492   30.6182  -75.0804 H         1 UNK         0.1329 
     78 H78       -77.0026   28.9531  -71.3061 H         1 UNK         0.1335 
     79 H79       -74.6279   29.0898  -71.9533 H         1 UNK         0.0680 
     80 H80       -74.1502   29.7862  -73.4863 H         1 UNK         0.0680 
     81 H81       -72.7049   30.1601  -70.9930 H         1 UNK         0.1032 
     82 H82       -72.9287   31.6340  -70.0956 H         1 UNK         0.1032 
     83 H83       -72.0040   32.9585  -72.0099 H         1 UNK         0.0461 
     84 H84       -69.4107   30.7913  -72.5327 H         1 UNK         0.3453 
     85 H85       -68.4939   31.2203  -71.1090 H         1 UNK         0.3453 
     86 H86       -72.0241   30.4131  -73.4230 H         1 UNK         0.2984 
     87 H87       -72.1400   30.9249  -75.8880 H         1 UNK         0.0554 
     88 H88       -70.5867   31.4014  -77.7612 H         1 UNK         0.0847 
     89 H89       -69.4776   32.2286  -76.6670 H         1 UNK         0.0847 
     90 H90       -71.0760   32.8918  -76.9759 H         1 UNK         0.0847 
     91 H91       -69.4249   29.8916  -75.9111 H         1 UNK         0.3141 
     92 H92       -69.0466   27.7381  -75.6020 H         1 UNK         0.0743 
     93 H93       -68.6764   28.2855  -73.2038 H         1 UNK         0.0784 
     94 H94       -68.6045   26.5474  -73.4421 H         1 UNK         0.0784 
     95 H95       -70.0399   27.2822  -72.7292 H         1 UNK         0.0784 
     96 H96       -71.2492   26.0330  -74.5404 H         1 UNK         0.3213 
     97 H97       -72.0749   24.7961  -77.7187 H         1 UNK         0.0855 
     98 H98       -70.1498   23.2910  -77.1984 H         1 UNK         0.0814 
     99 H99       -71.6749   22.5423  -76.7592 H         1 UNK         0.0814 
    100 H100      -70.6335   23.2275  -75.5099 H         1 UNK         0.0814 
    101 H101      -72.9521   24.0492  -75.1095 H         1 UNK         0.3105 
    102 H102      -75.1879   24.5377  -74.6752 H         1 UNK         0.0547 
    103 H103      -74.2116   27.2299  -73.5759 H         1 UNK         0.0837 
    104 H104      -73.6667   25.6439  -73.0595 H         1 UNK         0.0837 
    105 H105      -75.3163   26.1436  -72.7299 H         1 UNK         0.0837 
    106 H106      -76.3920   27.1453  -74.7883 H         1 UNK         0.3020 
    107 H107      -78.6046   27.0734  -75.6393 H         1 UNK         0.1245 
    108 H108      -77.4024   27.8367  -78.3589 H         1 UNK         0.0781 
    109 H109      -76.7946   28.4918  -76.8676 H         1 UNK         0.0781 
    110 H110      -79.0336   31.4283  -76.1787 H         1 UNK         0.0836 
    111 H111      -77.4370   31.0576  -76.7743 H         1 UNK         0.0836 
    112 H112      -79.2765   26.3689  -78.3298 H         1 UNK         0.3022 
    113 H113      -81.3198   25.2555  -78.5618 H         1 UNK         0.0747 
    114 H114      -80.7967   23.0131  -79.5936 H         1 UNK         0.0793 
    115 H115      -79.3401   23.9776  -79.4140 H         1 UNK         0.0793 
    116 H116      -79.6661   22.6703  -78.2849 H         1 UNK         0.0793 
    117 H117      -81.6352   23.2038  -76.4493 H         1 UNK         0.3047 
    118 H118      -85.0300   23.7576  -76.2538 H         1 UNK         0.0822 
    119 H119      -85.4791   21.3242  -76.5285 H         1 UNK         0.0807 
    120 H120      -83.9729   21.1246  -77.4260 H         1 UNK         0.0807 
    121 H121      -85.2807   22.0898  -78.0951 H         1 UNK         0.0807 
    122 H122      -83.3190   21.7296  -75.1202 H         1 UNK         0.2946 
    123 H123      -82.8745   23.3388  -72.1810 H         1 UNK         0.1144 
    124 H124      -83.2610   20.9942  -73.0296 H         1 UNK         0.0793 
    125 H125      -81.7516   21.1257  -72.1534 H         1 UNK         0.0793 
    126 H126      -81.7291   21.0577  -73.9082 H         1 UNK         0.0793 
    127 H127      -80.7309   23.8824  -74.0806 H         1 UNK         0.2896 
@<TRIPOS>BOND
     1    1    2 1    
     2    1   67 1    
     3    1   68 1    
     4    1   69 1    
     5    2    3 2    
     6    2    4 am   BACKBONE|DICT|INTERRES
     7    4    5 1    
     8    4   70 1    
     9    5    6 1    
    10    5   65 1    
    11    5   71 1    
    12    6    7 1    
    13    6   72 1    
    14    6   73 1    
    15    7    8 1    
    16    8    9 1    
    17    8   74 1    
    18    8   75 1    
    19    9   10 ar   
    20    9   14 ar   
    21   10   11 ar   
    22   10   76 1    
    23   11   12 ar   
    24   11   48 1    
    25   12   13 ar   
    26   12   77 1    
    27   13   14 ar   
    28   13   15 1    
    29   14   78 1    
    30   15   16 1    
    31   15   79 1    
    32   15   80 1    
    33   16   17 1    
    34   17   18 1    
    35   17   81 1    
    36   17   82 1    
    37   18   19 1    
    38   18   22 1    
    39   18   83 1    
    40   19   20 am   BACKBONE|DICT|INTERRES
    41   19   21 2    
    42   20   84 1    
    43   20   85 1    
    44   22   23 am   BACKBONE|DICT|INTERRES
    45   22   86 1    
    46   23   24 2    
    47   23   25 1    
    48   25   26 1    
    49   25   27 1    
    50   25   87 1    
    51   26   88 1    
    52   26   89 1    
    53   26   90 1    
    54   27   28 am   BACKBONE|DICT|INTERRES
    55   27   91 1    
    56   28   29 2    
    57   28   30 1    
    58   30   31 1    
    59   30   32 1    
    60   30   92 1    
    61   31   93 1    
    62   31   94 1    
    63   31   95 1    
    64   32   33 am   BACKBONE|DICT|INTERRES
    65   32   96 1    
    66   33   34 2    
    67   33   35 1    
    68   35   36 1    
    69   35   37 1    
    70   35   97 1    
    71   36   98 1    
    72   36   99 1    
    73   36  100 1    
    74   37   38 am   BACKBONE|DICT|INTERRES
    75   37  101 1    
    76   38   39 2    
    77   38   40 1    
    78   40   41 1    
    79   40   42 1    
    80   40  102 1    
    81   41  103 1    
    82   41  104 1    
    83   41  105 1    
    84   42   43 am   BACKBONE|DICT|INTERRES
    85   42  106 1    
    86   43   44 2    
    87   43   45 1    
    88   45   46 1    
    89   45   49 1    
    90   45  107 1    
    91   46   47 1    
    92   46  108 1    
    93   46  109 1    
    94   47   48 1    
    95   48  110 1    
    96   48  111 1    
    97   49   50 am   BACKBONE|DICT|INTERRES
    98   49  112 1    
    99   50   51 2    
   100   50   52 1    
   101   52   53 1    
   102   52   54 1    
   103   52  113 1    
   104   53  114 1    
   105   53  115 1    
   106   53  116 1    
   107   54   55 am   BACKBONE|DICT|INTERRES
   108   54  117 1    
   109   55   56 2    
   110   55   57 1    
   111   57   58 1    
   112   57   59 1    
   113   57  118 1    
   114   58  119 1    
   115   58  120 1    
   116   58  121 1    
   117   59   60 am   BACKBONE|DICT|INTERRES
   118   59  122 1    
   119   60   61 2    
   120   60   62 1    
   121   62   63 1    
   122   62   64 1    
   123   62  123 1    
   124   63  124 1    
   125   63  125 1    
   126   63  126 1    
   127   64   65 am   BACKBONE|DICT|INTERRES
   128   64  127 1    
   129   65   66 2    
@<TRIPOS>SUBSTRUCTURE
     1 UNK         1 GROUP             0       ****    0 ROOT    
