@<TRIPOS>MOLECULE
3R135
127   129    1
SMALL
USER_CHARGES


@<TRIPOS>ATOM
      1 CA        -85.8732   26.1301  -72.6658 C.3       0 UNK        -0.1998 
      2 C         -85.3681   27.1054  -73.7181 C.2       0 UNK         0.4909 
      3 O         -85.9674   27.2186  -74.7877 O.2       0 UNK        -0.5240 
      4 N         -84.2678   27.8101  -73.4248 N.am      1 UNK        -0.4739 
      5 CA        -83.6235   28.7790  -74.3221 C.3       1 UNK         0.0864 
      6 C6        -82.7878   29.8244  -73.5354 C.3       11 UNK        -0.0881 
      7 S7        -81.5540   29.1275  -72.3766 S.3       11 UNK        -0.2682 
      8 C8        -80.0774   29.0336  -73.4375 C.3       11 UNK         0.0289 
      9 C9        -78.7994   28.8592  -72.6286 C.ar      11 UNK        -0.0687 
     10 C10       -78.5585   27.6723  -71.9284 C.ar      11 UNK        -0.0823 
     11 C11       -77.3734   27.5018  -71.2047 C.ar      11 UNK        -0.0830 
     12 C12       -76.4154   28.5193  -71.2028 C.ar      11 UNK        -0.1021 
     13 C13       -76.6459   29.7106  -71.8966 C.ar      11 UNK        -0.0753 
     14 C14       -77.8407   29.8770  -72.6030 C.ar      11 UNK        -0.0933 
     15 C15       -75.6066   30.8198  -71.8763 C.3       11 UNK         0.0166 
     16 S16       -74.6809   30.8639  -73.4396 S.3       11 UNK        -0.2615 
     17 C17       -73.0144   31.3726  -72.8789 C.3       11 UNK        -0.0865 
     18 CA        -72.0214   30.1864  -72.7237 C.3       10 UNK         0.0862 
     19 C         -72.2375   29.4007  -71.4004 C.2       10 UNK         0.5551 
     20 N         -72.5700   28.1165  -71.4319 N.am      10 UNK        -0.7319 
     21 O         -72.0735   29.9648  -70.3215 O.2       10 UNK        -0.5018 
     22 N         -72.0130   29.3387  -73.9240 N.am      10 UNK        -0.4509 
     23 C         -71.0848   29.3367  -74.8805 C.2       10 UNK         0.4899 
     24 O         -70.0394   29.9903  -74.8465 O.2       10 UNK        -0.4839 
     25 CA        -71.4241   28.5064  -76.1215 C.3       9 UNK         0.0222 
     26 CB        -72.1212   29.4070  -77.1539 C.3       9 UNK        -0.1966 
     27 N         -70.1947   27.9845  -76.7131 N.am      9 UNK        -0.4218 
     28 C         -69.8006   26.7163  -76.9057 C.2       9 UNK         0.5020 
     29 O         -68.6730   26.4748  -77.3348 O.2       9 UNK        -0.5274 
     30 CA        -70.7179   25.5092  -76.5926 C.3       8 UNK         0.0270 
     31 CB        -70.7289   25.2034  -75.0837 C.3       8 UNK        -0.1976 
     32 N         -72.0940   25.5567  -77.0963 N.am      8 UNK        -0.4313 
     33 C         -72.5030   25.8696  -78.3337 C.2       8 UNK         0.5041 
     34 O         -71.7480   26.1695  -79.2589 O.2       8 UNK        -0.5577 
     35 CA        -74.0203   25.8359  -78.5892 C.3       7 UNK         0.0284 
     36 CB        -74.4436   24.4585  -79.1258 C.3       7 UNK        -0.1958 
     37 N         -74.7921   26.1378  -77.3797 N.am      7 UNK        -0.4454 
     38 C         -75.2395   27.3549  -77.0392 C.2       7 UNK         0.5089 
     39 O         -75.1069   28.3516  -77.7482 O.2       7 UNK        -0.5125 
     40 CA        -75.9773   27.4951  -75.6944 C.3       6 UNK         0.0408 
     41 CB        -77.4891   27.6332  -75.9323 C.3       6 UNK        -0.1791 
     42 N         -75.7319   26.3627  -74.7981 N.am      6 UNK        -0.4762 
     43 C         -74.6734   26.2616  -73.9809 C.2       6 UNK         0.5007 
     44 O         -73.8188   27.1405  -73.8638 O.2       6 UNK        -0.5032 
     45 CA        -74.4858   24.9427  -73.1991 C.3       5 UNK         0.0783 
     46 C46       -74.9122   25.0736  -71.7130 C.3       11 UNK        -0.0857 
     47 S47       -76.6977   24.8146  -71.4212 S.3       11 UNK        -0.2512 
     48 C48       -77.1527   26.2382  -70.3872 C.3       11 UNK         0.0225 
     49 N         -75.1008   23.7804  -73.8492 N.am      5 UNK        -0.4615 
     50 C         -74.7647   23.2888  -75.0469 C.2       4 UNK         0.5053 
     51 O         -73.8482   23.7408  -75.7308 O.2       4 UNK        -0.5105 
     52 CA        -75.6491   22.1597  -75.6070 C.3       4 UNK         0.0263 
     53 CB        -75.1226   20.7899  -75.1524 C.3       4 UNK        -0.1981 
     54 N         -77.0684   22.2896  -75.2457 N.am      4 UNK        -0.4224 
     55 C         -77.8369   23.3428  -75.5585 C.2       3 UNK         0.4895 
     56 O         -77.4280   24.3159  -76.1982 O.2       3 UNK        -0.5091 
     57 CA        -79.2802   23.3355  -75.0364 C.3       3 UNK         0.0250 
     58 CB        -79.2974   23.5042  -73.5021 C.3       3 UNK        -0.1996 
     59 N         -79.9900   24.4358  -75.6872 N.am      3 UNK        -0.4254 
     60 C         -81.2694   24.7847  -75.5273 C.2       2 UNK         0.5004 
     61 O         -82.0773   24.1753  -74.8214 O.2       2 UNK        -0.5226 
     62 CA        -81.7347   26.0314  -76.2841 C.3       2 UNK         0.0269 
     63 CB        -82.5111   25.6544  -77.5585 C.3       2 UNK        -0.1926 
     64 N         -82.5799   26.8061  -75.3825 N.am      2 UNK        -0.4687 
     65 C         -82.7999   28.1237  -75.4549 C.2       1 UNK         0.5165 
     66 O         -82.3586   28.8307  -76.3621 O.2       1 UNK        -0.5079 
     67 H67       -85.8697   25.1154  -73.0629 H         1 UNK         0.0900 
     68 H68       -86.8943   26.3815  -72.3804 H         1 UNK         0.0900 
     69 H69       -85.2569   26.1447  -71.7670 H         1 UNK         0.0900 
     70 H70       -83.8091   27.6819  -72.5329 H         1 UNK         0.2959 
     71 H71       -84.4176   29.3304  -74.8312 H         1 UNK         0.1079 
     72 H72       -82.3031   30.5298  -74.2132 H         1 UNK         0.0837 
     73 H73       -83.4683   30.4347  -72.9398 H         1 UNK         0.0837 
     74 H74       -80.0137   29.9302  -74.0558 H         1 UNK         0.0685 
     75 H75       -80.1839   28.1927  -74.1228 H         1 UNK         0.0685 
     76 H76       -79.3001   26.8851  -71.9384 H         1 UNK         0.1434 
     77 H77       -75.4945   28.3912  -70.6506 H         1 UNK         0.1329 
     78 H78       -78.0141   30.7972  -73.1440 H         1 UNK         0.1335 
     79 H79       -76.0906   31.7843  -71.7168 H         1 UNK         0.0680 
     80 H80       -74.9249   30.6759  -71.0371 H         1 UNK         0.0680 
     81 H81       -73.0838   31.9588  -71.9605 H         1 UNK         0.1032 
     82 H82       -72.6214   32.0621  -73.6272 H         1 UNK         0.1032 
     83 H83       -71.0273   30.6218  -72.6071 H         1 UNK         0.0461 
     84 H84       -72.6749   27.6167  -70.5645 H         1 UNK         0.3453 
     85 H85       -72.7833   27.6670  -72.3138 H         1 UNK         0.3453 
     86 H86       -72.8241   28.7330  -74.0236 H         1 UNK         0.2984 
     87 H87       -72.1063   27.7147  -75.8237 H         1 UNK         0.0554 
     88 H88       -72.3871   28.8525  -78.0534 H         1 UNK         0.0847 
     89 H89       -71.4899   30.2438  -77.4553 H         1 UNK         0.0847 
     90 H90       -73.0423   29.8267  -76.7469 H         1 UNK         0.0847 
     91 H91       -69.5041   28.7019  -76.8841 H         1 UNK         0.3141 
     92 H92       -70.2627   24.6489  -77.0870 H         1 UNK         0.0743 
     93 H93       -69.7136   25.1455  -74.6890 H         1 UNK         0.0784 
     94 H94       -71.2556   25.9678  -74.5126 H         1 UNK         0.0784 
     95 H95       -71.2068   24.2453  -74.8784 H         1 UNK         0.0784 
     96 H96       -72.8000   25.1998  -76.4607 H         1 UNK         0.3213 
     97 H97       -74.2421   26.5784  -79.3589 H         1 UNK         0.0855 
     98 H98       -74.2128   23.6584  -78.4221 H         1 UNK         0.0814 
     99 H99       -73.9262   24.2296  -80.0584 H         1 UNK         0.0814 
    100 H100      -75.5136   24.4251  -79.3316 H         1 UNK         0.0814 
    101 H101      -74.9628   25.3693  -76.7441 H         1 UNK         0.3105 
    102 H102      -75.6288   28.4100  -75.2102 H         1 UNK         0.0547 
    103 H103      -77.8719   26.8545  -76.5914 H         1 UNK         0.0837 
    104 H104      -78.0416   27.5803  -74.9970 H         1 UNK         0.0837 
    105 H105      -77.7204   28.5921  -76.3972 H         1 UNK         0.0837 
    106 H106      -76.3702   25.5801  -74.8807 H         1 UNK         0.3020 
    107 H107      -73.4082   24.7624  -73.2058 H         1 UNK         0.1245 
    108 H108      -74.5984   26.0316  -71.2955 H         1 UNK         0.0781 
    109 H109      -74.3852   24.3196  -71.1264 H         1 UNK         0.0781 
    110 H110      -76.3933   26.3939  -69.6192 H         1 UNK         0.0836 
    111 H111      -78.0726   25.9972  -69.8525 H         1 UNK         0.0836 
    112 H112      -75.8801   23.3704  -73.3549 H         1 UNK         0.3022 
    113 H113      -75.5827   22.2067  -76.6960 H         1 UNK         0.0747 
    114 H114      -75.6772   19.9760  -75.6199 H         1 UNK         0.0793 
    115 H115      -74.0744   20.6644  -75.4279 H         1 UNK         0.0793 
    116 H116      -75.1922   20.6673  -74.0707 H         1 UNK         0.0793 
    117 H117      -77.4739   21.5288  -74.7192 H         1 UNK         0.3047 
    118 H118      -79.7496   22.3912  -75.3180 H         1 UNK         0.0822 
    119 H119      -78.6443   22.7860  -73.0054 H         1 UNK         0.0807 
    120 H120      -80.2947   23.3507  -73.0911 H         1 UNK         0.0807 
    121 H121      -78.9722   24.5032  -73.2116 H         1 UNK         0.0807 
    122 H122      -79.3895   24.9689  -76.3058 H         1 UNK         0.2946 
    123 H123      -80.8618   26.6299  -76.5558 H         1 UNK         0.1144 
    124 H124      -83.4046   25.0733  -77.3268 H         1 UNK         0.0793 
    125 H125      -81.8942   25.0547  -78.2288 H         1 UNK         0.0793 
    126 H126      -82.8230   26.5405  -78.1116 H         1 UNK         0.0793 
    127 H127      -82.9585   26.2848  -74.6018 H         1 UNK         0.2896 
@<TRIPOS>BOND
     1    1    2 1    
     2    1   67 1    
     3    1   68 1    
     4    1   69 1    
     5    2    3 2    
     6    2    4 am   BACKBONE|DICT|INTERRES
     7    4    5 1    
     8    4   70 1    
     9    5    6 1    
    10    5   65 1    
    11    5   71 1    
    12    6    7 1    
    13    6   72 1    
    14    6   73 1    
    15    7    8 1    
    16    8    9 1    
    17    8   74 1    
    18    8   75 1    
    19    9   10 ar   
    20    9   14 ar   
    21   10   11 ar   
    22   10   76 1    
    23   11   12 ar   
    24   11   48 1    
    25   12   13 ar   
    26   12   77 1    
    27   13   14 ar   
    28   13   15 1    
    29   14   78 1    
    30   15   16 1    
    31   15   79 1    
    32   15   80 1    
    33   16   17 1    
    34   17   18 1    
    35   17   81 1    
    36   17   82 1    
    37   18   19 1    
    38   18   22 1    
    39   18   83 1    
    40   19   20 am   BACKBONE|DICT|INTERRES
    41   19   21 2    
    42   20   84 1    
    43   20   85 1    
    44   22   23 am   BACKBONE|DICT|INTERRES
    45   22   86 1    
    46   23   24 2    
    47   23   25 1    
    48   25   26 1    
    49   25   27 1    
    50   25   87 1    
    51   26   88 1    
    52   26   89 1    
    53   26   90 1    
    54   27   28 am   BACKBONE|DICT|INTERRES
    55   27   91 1    
    56   28   29 2    
    57   28   30 1    
    58   30   31 1    
    59   30   32 1    
    60   30   92 1    
    61   31   93 1    
    62   31   94 1    
    63   31   95 1    
    64   32   33 am   BACKBONE|DICT|INTERRES
    65   32   96 1    
    66   33   34 2    
    67   33   35 1    
    68   35   36 1    
    69   35   37 1    
    70   35   97 1    
    71   36   98 1    
    72   36   99 1    
    73   36  100 1    
    74   37   38 am   BACKBONE|DICT|INTERRES
    75   37  101 1    
    76   38   39 2    
    77   38   40 1    
    78   40   41 1    
    79   40   42 1    
    80   40  102 1    
    81   41  103 1    
    82   41  104 1    
    83   41  105 1    
    84   42   43 am   BACKBONE|DICT|INTERRES
    85   42  106 1    
    86   43   44 2    
    87   43   45 1    
    88   45   46 1    
    89   45   49 1    
    90   45  107 1    
    91   46   47 1    
    92   46  108 1    
    93   46  109 1    
    94   47   48 1    
    95   48  110 1    
    96   48  111 1    
    97   49   50 am   BACKBONE|DICT|INTERRES
    98   49  112 1    
    99   50   51 2    
   100   50   52 1    
   101   52   53 1    
   102   52   54 1    
   103   52  113 1    
   104   53  114 1    
   105   53  115 1    
   106   53  116 1    
   107   54   55 am   BACKBONE|DICT|INTERRES
   108   54  117 1    
   109   55   56 2    
   110   55   57 1    
   111   57   58 1    
   112   57   59 1    
   113   57  118 1    
   114   58  119 1    
   115   58  120 1    
   116   58  121 1    
   117   59   60 am   BACKBONE|DICT|INTERRES
   118   59  122 1    
   119   60   61 2    
   120   60   62 1    
   121   62   63 1    
   122   62   64 1    
   123   62  123 1    
   124   63  124 1    
   125   63  125 1    
   126   63  126 1    
   127   64   65 am   BACKBONE|DICT|INTERRES
   128   64  127 1    
   129   65   66 2    
@<TRIPOS>SUBSTRUCTURE
     1 UNK         1 GROUP             0       ****    0 ROOT    
