@<TRIPOS>MOLECULE
3R135
127   129    1
SMALL
USER_CHARGES


@<TRIPOS>ATOM
      1 CA        -83.7699   26.6785  -75.2470 C.3       0 UNK        -0.1998 
      2 C         -82.4339   27.1000  -75.8386 C.2       0 UNK         0.4909 
      3 O         -82.1964   26.8954  -77.0295 O.2       0 UNK        -0.5240 
      4 N         -81.5575   27.6805  -75.0102 N.am      1 UNK        -0.4739 
      5 CA        -80.1925   28.1105  -75.3357 C.3       1 UNK         0.0864 
      6 C6        -79.5099   28.9034  -74.1787 C.3       11 UNK        -0.0881 
      7 S7        -80.1095   28.5037  -72.4964 S.3       11 UNK        -0.2682 
      8 C8        -78.9624   29.4632  -71.4574 C.3       11 UNK         0.0289 
      9 C9        -77.6810   28.6896  -71.1954 C.ar      11 UNK        -0.0687 
     10 C10       -77.7318   27.5103  -70.4464 C.ar      11 UNK        -0.0823 
     11 C11       -76.5790   26.7504  -70.2425 C.ar      11 UNK        -0.0830 
     12 C12       -75.3584   27.2028  -70.7475 C.ar      11 UNK        -0.1021 
     13 C13       -75.2951   28.3802  -71.4959 C.ar      11 UNK        -0.0753 
     14 C14       -76.4582   29.1247  -71.7178 C.ar      11 UNK        -0.0933 
     15 C15       -73.9789   28.7884  -72.1287 C.3       11 UNK         0.0166 
     16 S16       -72.9861   29.8563  -71.0513 S.3       11 UNK        -0.2615 
     17 C17       -71.3334   29.6323  -71.7971 C.3       11 UNK        -0.0865 
     18 CA        -70.9116   30.7929  -72.7360 C.3       10 UNK         0.0862 
     19 C         -69.3756   30.7542  -72.9956 C.2       10 UNK         0.5551 
     20 N         -68.9091   30.5089  -74.2146 N.am      10 UNK        -0.7319 
     21 O         -68.5928   30.9591  -72.0710 O.2       10 UNK        -0.5018 
     22 N         -71.7224   30.8453  -73.9688 N.am      10 UNK        -0.4509 
     23 C         -71.8627   31.9535  -74.7142 C.2       10 UNK         0.4899 
     24 O         -71.4254   33.0548  -74.3776 O.2       10 UNK        -0.4839 
     25 CA        -72.5732   31.8412  -76.0784 C.3       9 UNK         0.0222 
     26 CB        -71.5479   31.9225  -77.2221 C.3       9 UNK        -0.1966 
     27 N         -73.3670   30.6240  -76.2429 N.am      9 UNK        -0.4218 
     28 C         -74.5414   30.3883  -75.6464 C.2       9 UNK         0.5020 
     29 O         -75.1252   31.2105  -74.9395 O.2       9 UNK        -0.5274 
     30 CA        -75.1857   29.0057  -75.8655 C.3       8 UNK         0.0270 
     31 CB        -76.3122   29.1217  -76.9027 C.3       8 UNK        -0.1976 
     32 N         -74.2931   27.9102  -76.2729 N.am      8 UNK        -0.4313 
     33 C         -73.1541   27.5083  -75.6930 C.2       8 UNK         0.5041 
     34 O         -72.5740   28.1424  -74.8109 O.2       8 UNK        -0.5577 
     35 CA        -72.5647   26.1739  -76.1933 C.3       7 UNK         0.0284 
     36 CB        -71.3321   25.7376  -75.3790 C.3       7 UNK        -0.1958 
     37 N         -73.5425   25.0788  -76.1860 N.am      7 UNK        -0.4454 
     38 C         -74.5116   24.8770  -77.0859 C.2       7 UNK         0.5089 
     39 O         -74.7577   25.6659  -77.9990 O.2       7 UNK        -0.5125 
     40 CA        -75.3556   23.5964  -76.9469 C.3       6 UNK         0.0408 
     41 CB        -74.5035   22.3280  -77.1565 C.3       6 UNK        -0.1791 
     42 N         -76.1597   23.5223  -75.7143 N.am      6 UNK        -0.4762 
     43 C         -75.7173   23.4172  -74.4516 C.2       6 UNK         0.5007 
     44 O         -74.5191   23.3702  -74.1654 O.2       6 UNK        -0.5032 
     45 CA        -76.7528   23.3431  -73.3090 C.3       5 UNK         0.0783 
     46 C46       -76.3787   24.3271  -72.1715 C.3       11 UNK        -0.0857 
     47 S47       -77.4134   24.1508  -70.6741 S.3       11 UNK        -0.2512 
     48 C48       -76.6680   25.3930  -69.5640 C.3       11 UNK         0.0225 
     49 N         -78.1383   23.5487  -73.7644 N.am      5 UNK        -0.4615 
     50 C         -79.1410   22.7034  -73.4836 C.2       4 UNK         0.5053 
     51 O         -78.9783   21.5688  -73.0332 O.2       4 UNK        -0.5105 
     52 CA        -80.5719   23.2109  -73.7135 C.3       4 UNK         0.0263 
     53 CB        -80.9028   24.3987  -72.7906 C.3       4 UNK        -0.1981 
     54 N         -80.7781   23.5906  -75.1076 N.am      4 UNK        -0.4224 
     55 C         -81.2689   22.7745  -76.0530 C.2       3 UNK         0.4895 
     56 O         -81.6422   21.6213  -75.8347 O.2       3 UNK        -0.5091 
     57 CA        -81.3723   23.3250  -77.4886 C.3       3 UNK         0.0250 
     58 CB        -82.8322   23.6420  -77.8512 C.3       3 UNK        -0.1996 
     59 N         -80.5415   24.5129  -77.7046 N.am      3 UNK        -0.4254 
     60 C         -79.2069   24.4635  -77.8247 C.2       2 UNK         0.5004 
     61 O         -78.5716   23.4113  -77.8500 O.2       2 UNK        -0.5226 
     62 CA        -78.4429   25.7978  -77.8672 C.3       2 UNK         0.0269 
     63 CB        -78.1597   26.2176  -79.3173 C.3       2 UNK        -0.1926 
     64 N         -79.1330   26.8829  -77.1678 N.am      2 UNK        -0.4687 
     65 C         -79.3434   26.9266  -75.8446 C.2       1 UNK         0.5165 
     66 O         -78.9489   26.0556  -75.0652 O.2       1 UNK        -0.5079 
     67 H67       -83.9495   27.1481  -74.2801 H         1 UNK         0.0900 
     68 H68       -83.7966   25.5979  -75.1106 H         1 UNK         0.0900 
     69 H69       -84.5835   26.9602  -75.9148 H         1 UNK         0.0900 
     70 H70       -81.7994   27.7995  -74.0355 H         1 UNK         0.2959 
     71 H71       -80.2890   28.8088  -76.1703 H         1 UNK         0.1079 
     72 H72       -78.4232   28.7953  -74.2039 H         1 UNK         0.0837 
     73 H73       -79.6934   29.9686  -74.3286 H         1 UNK         0.0837 
     74 H74       -78.7571   30.4285  -71.9229 H         1 UNK         0.0685 
     75 H75       -79.4471   29.6776  -70.5039 H         1 UNK         0.0685 
     76 H76       -78.6817   27.1541  -70.0711 H         1 UNK         0.1434 
     77 H77       -74.4645   26.6105  -70.6058 H         1 UNK         0.1329 
     78 H78       -76.4123   30.0262  -72.3140 H         1 UNK         0.1335 
     79 H79       -73.4165   27.8883  -72.3795 H         1 UNK         0.0680 
     80 H80       -74.1607   29.3156  -73.0618 H         1 UNK         0.0680 
     81 H81       -71.2733   28.6777  -72.3229 H         1 UNK         0.1032 
     82 H82       -70.6358   29.5470  -70.9613 H         1 UNK         0.1032 
     83 H83       -71.0872   31.7206  -72.1876 H         1 UNK         0.0461 
     84 H84       -67.9134   30.4911  -74.3694 H         1 UNK         0.3453 
     85 H85       -69.5437   30.3297  -74.9751 H         1 UNK         0.3453 
     86 H86       -72.0905   29.9586  -74.3050 H         1 UNK         0.2984 
     87 H87       -73.2438   32.6988  -76.1652 H         1 UNK         0.0554 
     88 H88       -72.0385   31.9337  -78.1956 H         1 UNK         0.0847 
     89 H89       -70.8533   31.0818  -77.2049 H         1 UNK         0.0847 
     90 H90       -70.9547   32.8355  -77.1521 H         1 UNK         0.0847 
     91 H91       -72.9568   29.8769  -76.7838 H         1 UNK         0.3141 
     92 H92       -75.6301   28.7053  -74.9147 H         1 UNK         0.0743 
     93 H93       -77.0766   29.8292  -76.5780 H         1 UNK         0.0784 
     94 H94       -75.9365   29.4632  -77.8682 H         1 UNK         0.0784 
     95 H95       -76.7989   28.1623  -77.0595 H         1 UNK         0.0784 
     96 H96       -74.6412   27.3036  -77.0115 H         1 UNK         0.3213 
     97 H97       -72.2399   26.3387  -77.2229 H         1 UNK         0.0855 
     98 H98       -70.5534   26.5012  -75.4054 H         1 UNK         0.0814 
     99 H99       -70.8969   24.8207  -75.7765 H         1 UNK         0.0814 
    100 H100      -71.5838   25.5644  -74.3318 H         1 UNK         0.0814 
    101 H101      -73.5051   24.4284  -75.4051 H         1 UNK         0.3105 
    102 H102      -76.0663   23.6197  -77.7712 H         1 UNK         0.0547 
    103 H103      -73.9828   22.3656  -78.1141 H         1 UNK         0.0837 
    104 H104      -73.7449   22.1998  -76.3844 H         1 UNK         0.0837 
    105 H105      -75.1259   21.4333  -77.1639 H         1 UNK         0.0837 
    106 H106      -77.1613   23.5295  -75.8571 H         1 UNK         0.3020 
    107 H107      -76.6397   22.3326  -72.9102 H         1 UNK         0.1245 
    108 H108      -76.4657   25.3494  -72.5434 H         1 UNK         0.0781 
    109 H109      -75.3399   24.1967  -71.8616 H         1 UNK         0.0781 
    110 H110      -75.6805   25.0497  -69.2518 H         1 UNK         0.0836 
    111 H111      -77.2684   25.4717  -68.6566 H         1 UNK         0.0836 
    112 H112      -78.3606   24.4700  -74.1344 H         1 UNK         0.3022 
    113 H113      -81.2563   22.4011  -73.4508 H         1 UNK         0.0747 
    114 H114      -81.9364   24.7210  -72.9165 H         1 UNK         0.0793 
    115 H115      -80.7751   24.1212  -71.7434 H         1 UNK         0.0793 
    116 H116      -80.2620   25.2615  -72.9720 H         1 UNK         0.0793 
    117 H117      -80.4399   24.5052  -75.3770 H         1 UNK         0.3047 
    118 H118      -81.0266   22.5371  -78.1617 H         1 UNK         0.0822 
    119 H119      -82.9175   24.0032  -78.8762 H         1 UNK         0.0807 
    120 H120      -83.2607   24.3969  -77.1935 H         1 UNK         0.0807 
    121 H121      -83.4555   22.7504  -77.7697 H         1 UNK         0.0807 
    122 H122      -81.0076   25.4155  -77.6634 H         1 UNK         0.2946 
    123 H123      -77.4871   25.6406  -77.3654 H         1 UNK         0.1144 
    124 H124      -77.5439   27.1163  -79.3574 H         1 UNK         0.0793 
    125 H125      -79.0795   26.4122  -79.8701 H         1 UNK         0.0793 
    126 H126      -77.6169   25.4345  -79.8488 H         1 UNK         0.0793 
    127 H127      -79.5427   27.6013  -77.7485 H         1 UNK         0.2896 
@<TRIPOS>BOND
     1    1    2 1    
     2    1   67 1    
     3    1   68 1    
     4    1   69 1    
     5    2    3 2    
     6    2    4 am   BACKBONE|DICT|INTERRES
     7    4    5 1    
     8    4   70 1    
     9    5    6 1    
    10    5   65 1    
    11    5   71 1    
    12    6    7 1    
    13    6   72 1    
    14    6   73 1    
    15    7    8 1    
    16    8    9 1    
    17    8   74 1    
    18    8   75 1    
    19    9   10 ar   
    20    9   14 ar   
    21   10   11 ar   
    22   10   76 1    
    23   11   12 ar   
    24   11   48 1    
    25   12   13 ar   
    26   12   77 1    
    27   13   14 ar   
    28   13   15 1    
    29   14   78 1    
    30   15   16 1    
    31   15   79 1    
    32   15   80 1    
    33   16   17 1    
    34   17   18 1    
    35   17   81 1    
    36   17   82 1    
    37   18   19 1    
    38   18   22 1    
    39   18   83 1    
    40   19   20 am   BACKBONE|DICT|INTERRES
    41   19   21 2    
    42   20   84 1    
    43   20   85 1    
    44   22   23 am   BACKBONE|DICT|INTERRES
    45   22   86 1    
    46   23   24 2    
    47   23   25 1    
    48   25   26 1    
    49   25   27 1    
    50   25   87 1    
    51   26   88 1    
    52   26   89 1    
    53   26   90 1    
    54   27   28 am   BACKBONE|DICT|INTERRES
    55   27   91 1    
    56   28   29 2    
    57   28   30 1    
    58   30   31 1    
    59   30   32 1    
    60   30   92 1    
    61   31   93 1    
    62   31   94 1    
    63   31   95 1    
    64   32   33 am   BACKBONE|DICT|INTERRES
    65   32   96 1    
    66   33   34 2    
    67   33   35 1    
    68   35   36 1    
    69   35   37 1    
    70   35   97 1    
    71   36   98 1    
    72   36   99 1    
    73   36  100 1    
    74   37   38 am   BACKBONE|DICT|INTERRES
    75   37  101 1    
    76   38   39 2    
    77   38   40 1    
    78   40   41 1    
    79   40   42 1    
    80   40  102 1    
    81   41  103 1    
    82   41  104 1    
    83   41  105 1    
    84   42   43 am   BACKBONE|DICT|INTERRES
    85   42  106 1    
    86   43   44 2    
    87   43   45 1    
    88   45   46 1    
    89   45   49 1    
    90   45  107 1    
    91   46   47 1    
    92   46  108 1    
    93   46  109 1    
    94   47   48 1    
    95   48  110 1    
    96   48  111 1    
    97   49   50 am   BACKBONE|DICT|INTERRES
    98   49  112 1    
    99   50   51 2    
   100   50   52 1    
   101   52   53 1    
   102   52   54 1    
   103   52  113 1    
   104   53  114 1    
   105   53  115 1    
   106   53  116 1    
   107   54   55 am   BACKBONE|DICT|INTERRES
   108   54  117 1    
   109   55   56 2    
   110   55   57 1    
   111   57   58 1    
   112   57   59 1    
   113   57  118 1    
   114   58  119 1    
   115   58  120 1    
   116   58  121 1    
   117   59   60 am   BACKBONE|DICT|INTERRES
   118   59  122 1    
   119   60   61 2    
   120   60   62 1    
   121   62   63 1    
   122   62   64 1    
   123   62  123 1    
   124   63  124 1    
   125   63  125 1    
   126   63  126 1    
   127   64   65 am   BACKBONE|DICT|INTERRES
   128   64  127 1    
   129   65   66 2    
@<TRIPOS>SUBSTRUCTURE
     1 UNK         1 GROUP             0       ****    0 ROOT    
