@<TRIPOS>MOLECULE
3R135
127   129    1
SMALL
USER_CHARGES


@<TRIPOS>ATOM
      1 CA        -83.9684   26.9666  -70.7624 C.3       0 UNK        -0.1998 
      2 C         -83.5961   27.4605  -72.1522 C.2       0 UNK         0.4909 
      3 O         -84.4423   27.4681  -73.0466 O.2       0 UNK        -0.5240 
      4 N         -82.3361   27.8759  -72.3368 N.am      1 UNK        -0.4739 
      5 CA        -81.7903   28.3653  -73.6106 C.3       1 UNK         0.0864 
      6 C6        -80.4470   29.1087  -73.4145 C.3       11 UNK        -0.0881 
      7 S7        -80.6385   30.6472  -72.4468 S.3       11 UNK        -0.2682 
      8 C8        -80.2266   30.1318  -70.7455 C.3       11 UNK         0.0289 
      9 C9        -78.7873   29.6568  -70.6178 C.ar      11 UNK        -0.0687 
     10 C10       -78.5024   28.2997  -70.4420 C.ar      11 UNK        -0.0823 
     11 C11       -77.1787   27.8553  -70.3696 C.ar      11 UNK        -0.0830 
     12 C12       -76.1376   28.7889  -70.4261 C.ar      11 UNK        -0.1021 
     13 C13       -76.4104   30.1509  -70.5978 C.ar      11 UNK        -0.0753 
     14 C14       -77.7384   30.5767  -70.6889 C.ar      11 UNK        -0.0933 
     15 C15       -75.2812   31.1719  -70.7012 C.3       11 UNK         0.0166 
     16 S16       -74.0562   30.7781  -71.9950 S.3       11 UNK        -0.2615 
     17 C17       -75.1193   30.4016  -73.4337 C.3       11 UNK        -0.0865 
     18 CA        -74.4011   30.3057  -74.8145 C.3       10 UNK         0.0862 
     19 C         -74.2170   31.6599  -75.5659 C.2       10 UNK         0.5551 
     20 N         -73.4372   31.6950  -76.6394 N.am      10 UNK        -0.7319 
     21 O         -74.8111   32.6744  -75.2084 O.2       10 UNK        -0.5018 
     22 N         -73.2598   29.3652  -74.8119 N.am      10 UNK        -0.4509 
     23 C         -71.9787   29.6435  -74.5223 C.2       10 UNK         0.4899 
     24 O         -71.5428   30.7835  -74.3574 O.2       10 UNK        -0.4839 
     25 CA        -70.9922   28.4778  -74.3397 C.3       9 UNK         0.0222 
     26 CB        -70.5579   28.3936  -72.8599 C.3       9 UNK        -0.1966 
     27 N         -71.4732   27.1630  -74.7873 N.am      9 UNK        -0.4218 
     28 C         -70.6479   26.1403  -75.0570 C.2       9 UNK         0.5020 
     29 O         -69.4196   26.2402  -75.0916 O.2       9 UNK        -0.5274 
     30 CA        -71.2807   24.7576  -75.2747 C.3       8 UNK         0.0270 
     31 CB        -71.8606   24.2131  -73.9581 C.3       8 UNK        -0.1976 
     32 N         -72.2988   24.7330  -76.3248 N.am      8 UNK        -0.4313 
     33 C         -72.0408   24.8742  -77.6330 C.2       8 UNK         0.5041 
     34 O         -70.9152   25.0673  -78.0949 O.2       8 UNK        -0.5577 
     35 CA        -73.2327   24.7600  -78.5986 C.3       7 UNK         0.0284 
     36 CB        -73.5620   23.2846  -78.8785 C.3       7 UNK        -0.1958 
     37 N         -74.4290   25.4434  -78.1084 N.am      7 UNK        -0.4454 
     38 C         -74.5495   26.7728  -77.9941 C.2       7 UNK         0.5089 
     39 O         -73.6908   27.5782  -78.3544 O.2       7 UNK        -0.5125 
     40 CA        -75.8340   27.2920  -77.3264 C.3       6 UNK         0.0408 
     41 CB        -76.9977   27.3284  -78.3281 C.3       6 UNK        -0.1791 
     42 N         -76.2213   26.5229  -76.1397 N.am      6 UNK        -0.4762 
     43 C         -75.4548   26.3393  -75.0529 C.2       6 UNK         0.5007 
     44 O         -74.3228   26.8060  -74.9145 O.2       6 UNK        -0.5032 
     45 CA        -76.0406   25.4534  -73.9422 C.3       5 UNK         0.0783 
     46 C46       -77.0669   26.2622  -73.1164 C.3       11 UNK        -0.0857 
     47 S47       -77.6394   25.3889  -71.6208 S.3       11 UNK        -0.2512 
     48 C48       -76.8680   26.3639  -70.2777 C.3       11 UNK         0.0225 
     49 N         -76.5928   24.2149  -74.4999 N.am      5 UNK        -0.4615 
     50 C         -75.8638   23.2705  -75.1131 C.2       4 UNK         0.5053 
     51 O         -74.6408   23.3202  -75.2323 O.2       4 UNK        -0.5105 
     52 CA        -76.6307   22.1004  -75.7494 C.3       4 UNK         0.0263 
     53 CB        -77.0399   21.0735  -74.6816 C.3       4 UNK        -0.1981 
     54 N         -77.8144   22.5432  -76.4879 N.am      4 UNK        -0.4224 
     55 C         -77.7898   23.3466  -77.5623 C.2       3 UNK         0.4895 
     56 O         -76.7567   23.7394  -78.1022 O.2       3 UNK        -0.5091 
     57 CA        -79.1490   23.8359  -78.0932 C.3       3 UNK         0.0250 
     58 CB        -79.6902   22.8703  -79.1590 C.3       3 UNK        -0.1996 
     59 N         -80.1525   24.0193  -77.0385 N.am      3 UNK        -0.4254 
     60 C         -80.0305   24.8692  -76.0087 C.2       2 UNK         0.5004 
     61 O         -79.0577   25.6098  -75.8422 O.2       2 UNK        -0.5226 
     62 CA        -81.1455   24.8030  -74.9514 C.3       2 UNK         0.0269 
     63 CB        -80.8833   23.6358  -73.9838 C.3       2 UNK        -0.1926 
     64 N         -81.2792   26.0303  -74.1655 N.am      2 UNK        -0.4687 
     65 C         -81.6429   27.2290  -74.6444 C.2       1 UNK         0.5165 
     66 O         -81.8973   27.4483  -75.8299 O.2       1 UNK        -0.5079 
     67 H67       -84.7837   27.5657  -70.3577 H         1 UNK         0.0900 
     68 H68       -83.1294   27.0245  -70.0692 H         1 UNK         0.0900 
     69 H69       -84.2984   25.9292  -70.8093 H         1 UNK         0.0900 
     70 H70       -81.6917   27.8571  -71.5616 H         1 UNK         0.2959 
     71 H71       -82.5094   29.0737  -74.0290 H         1 UNK         0.1079 
     72 H72       -79.7006   28.4579  -72.9579 H         1 UNK         0.0837 
     73 H73       -80.0319   29.3966  -74.3827 H         1 UNK         0.0837 
     74 H74       -80.3807   30.9812  -70.0786 H         1 UNK         0.0685 
     75 H75       -80.9235   29.3617  -70.4143 H         1 UNK         0.0685 
     76 H76       -79.3076   27.5796  -70.3969 H         1 UNK         0.1434 
     77 H77       -75.1097   28.4568  -70.3710 H         1 UNK         0.1329 
     78 H78       -77.9618   31.6254  -70.8307 H         1 UNK         0.1335 
     79 H79       -74.7701   31.2332  -69.7396 H         1 UNK         0.0680 
     80 H80       -75.6793   32.1679  -70.9014 H         1 UNK         0.0680 
     81 H81       -75.9412   31.1191  -73.4686 H         1 UNK         0.1032 
     82 H82       -75.5943   29.4412  -73.2319 H         1 UNK         0.1032 
     83 H83       -75.1305   29.8082  -75.4507 H         1 UNK         0.0461 
     84 H84       -73.3187   32.5622  -77.1385 H         1 UNK         0.3453 
     85 H85       -72.9440   30.8675  -76.9352 H         1 UNK         0.3453 
     86 H86       -73.5346   28.3955  -74.9354 H         1 UNK         0.2984 
     87 H87       -70.1179   28.7412  -74.9390 H         1 UNK         0.0554 
     88 H88       -69.7463   27.6807  -72.7153 H         1 UNK         0.0847 
     89 H89       -71.3874   28.0930  -72.2186 H         1 UNK         0.0847 
     90 H90       -70.1996   29.3576  -72.4960 H         1 UNK         0.0847 
     91 H91       -72.4766   26.9962  -74.7976 H         1 UNK         0.3141 
     92 H92       -70.4804   24.0805  -75.5812 H         1 UNK         0.0743 
     93 H93       -71.1164   24.2408  -73.1610 H         1 UNK         0.0784 
     94 H94       -72.7210   24.7921  -73.6220 H         1 UNK         0.0784 
     95 H95       -72.1774   23.1756  -74.0658 H         1 UNK         0.0784 
     96 H96       -73.2466   24.5135  -76.0325 H         1 UNK         0.3213 
     97 H97       -72.9416   25.2277  -79.5417 H         1 UNK         0.0855 
     98 H98       -72.6878   22.7535  -79.2572 H         1 UNK         0.0814 
     99 H99       -74.3489   23.1901  -79.6270 H         1 UNK         0.0814 
    100 H100      -73.8956   22.7673  -77.9779 H         1 UNK         0.0814 
    101 H101      -75.2212   24.8579  -77.8535 H         1 UNK         0.3105 
    102 H102      -75.6460   28.3154  -77.0050 H         1 UNK         0.0547 
    103 H103      -76.7680   27.9897  -79.1644 H         1 UNK         0.0837 
    104 H104      -77.2035   26.3430  -78.7442 H         1 UNK         0.0837 
    105 H105      -77.9134   27.6961  -77.8644 H         1 UNK         0.0837 
    106 H106      -77.1520   26.1125  -76.1426 H         1 UNK         0.3020 
    107 H107      -75.2143   25.1790  -73.2826 H         1 UNK         0.1245 
    108 H108      -77.9455   26.5070  -73.7140 H         1 UNK         0.0781 
    109 H109      -76.6361   27.2224  -72.8328 H         1 UNK         0.0781 
    110 H110      -75.7908   26.1914  -70.2995 H         1 UNK         0.0836 
    111 H111      -77.2207   25.9857  -69.3174 H         1 UNK         0.0836 
    112 H112      -77.5981   24.1312  -74.4862 H         1 UNK         0.3022 
    113 H113      -75.9595   21.6103  -76.4580 H         1 UNK         0.0747 
    114 H114      -77.5108   20.1994  -75.1318 H         1 UNK         0.0793 
    115 H115      -76.1685   20.7204  -74.1280 H         1 UNK         0.0793 
    116 H116      -77.7372   21.4953  -73.9565 H         1 UNK         0.0793 
    117 H117      -78.7122   22.2606  -76.1249 H         1 UNK         0.3047 
    118 H118      -78.9884   24.8071  -78.5641 H         1 UNK         0.0822 
    119 H119      -80.6077   23.2494  -79.6096 H         1 UNK         0.0807 
    120 H120      -79.9012   21.8839  -78.7440 H         1 UNK         0.0807 
    121 H121      -78.9676   22.7364  -79.9656 H         1 UNK         0.0807 
    122 H122      -80.9778   23.4396  -77.0980 H         1 UNK         0.2946 
    123 H123      -82.0950   24.6354  -75.4650 H         1 UNK         0.1144 
    124 H124      -81.6881   23.5373  -73.2549 H         1 UNK         0.0793 
    125 H125      -79.9501   23.7690  -73.4344 H         1 UNK         0.0793 
    126 H126      -80.8175   22.6854  -74.5149 H         1 UNK         0.0793 
    127 H127      -81.0865   25.9552  -73.1782 H         1 UNK         0.2896 
@<TRIPOS>BOND
     1    1    2 1    
     2    1   67 1    
     3    1   68 1    
     4    1   69 1    
     5    2    3 2    
     6    2    4 am   BACKBONE|DICT|INTERRES
     7    4    5 1    
     8    4   70 1    
     9    5    6 1    
    10    5   65 1    
    11    5   71 1    
    12    6    7 1    
    13    6   72 1    
    14    6   73 1    
    15    7    8 1    
    16    8    9 1    
    17    8   74 1    
    18    8   75 1    
    19    9   10 ar   
    20    9   14 ar   
    21   10   11 ar   
    22   10   76 1    
    23   11   12 ar   
    24   11   48 1    
    25   12   13 ar   
    26   12   77 1    
    27   13   14 ar   
    28   13   15 1    
    29   14   78 1    
    30   15   16 1    
    31   15   79 1    
    32   15   80 1    
    33   16   17 1    
    34   17   18 1    
    35   17   81 1    
    36   17   82 1    
    37   18   19 1    
    38   18   22 1    
    39   18   83 1    
    40   19   20 am   BACKBONE|DICT|INTERRES
    41   19   21 2    
    42   20   84 1    
    43   20   85 1    
    44   22   23 am   BACKBONE|DICT|INTERRES
    45   22   86 1    
    46   23   24 2    
    47   23   25 1    
    48   25   26 1    
    49   25   27 1    
    50   25   87 1    
    51   26   88 1    
    52   26   89 1    
    53   26   90 1    
    54   27   28 am   BACKBONE|DICT|INTERRES
    55   27   91 1    
    56   28   29 2    
    57   28   30 1    
    58   30   31 1    
    59   30   32 1    
    60   30   92 1    
    61   31   93 1    
    62   31   94 1    
    63   31   95 1    
    64   32   33 am   BACKBONE|DICT|INTERRES
    65   32   96 1    
    66   33   34 2    
    67   33   35 1    
    68   35   36 1    
    69   35   37 1    
    70   35   97 1    
    71   36   98 1    
    72   36   99 1    
    73   36  100 1    
    74   37   38 am   BACKBONE|DICT|INTERRES
    75   37  101 1    
    76   38   39 2    
    77   38   40 1    
    78   40   41 1    
    79   40   42 1    
    80   40  102 1    
    81   41  103 1    
    82   41  104 1    
    83   41  105 1    
    84   42   43 am   BACKBONE|DICT|INTERRES
    85   42  106 1    
    86   43   44 2    
    87   43   45 1    
    88   45   46 1    
    89   45   49 1    
    90   45  107 1    
    91   46   47 1    
    92   46  108 1    
    93   46  109 1    
    94   47   48 1    
    95   48  110 1    
    96   48  111 1    
    97   49   50 am   BACKBONE|DICT|INTERRES
    98   49  112 1    
    99   50   51 2    
   100   50   52 1    
   101   52   53 1    
   102   52   54 1    
   103   52  113 1    
   104   53  114 1    
   105   53  115 1    
   106   53  116 1    
   107   54   55 am   BACKBONE|DICT|INTERRES
   108   54  117 1    
   109   55   56 2    
   110   55   57 1    
   111   57   58 1    
   112   57   59 1    
   113   57  118 1    
   114   58  119 1    
   115   58  120 1    
   116   58  121 1    
   117   59   60 am   BACKBONE|DICT|INTERRES
   118   59  122 1    
   119   60   61 2    
   120   60   62 1    
   121   62   63 1    
   122   62   64 1    
   123   62  123 1    
   124   63  124 1    
   125   63  125 1    
   126   63  126 1    
   127   64   65 am   BACKBONE|DICT|INTERRES
   128   64  127 1    
   129   65   66 2    
@<TRIPOS>SUBSTRUCTURE
     1 UNK         1 GROUP             0       ****    0 ROOT    
