@<TRIPOS>MOLECULE
3R135
127   129    1
SMALL
USER_CHARGES


@<TRIPOS>ATOM
      1 CA        -80.6397   23.3348  -70.0615 C.3       0 UNK        -0.1998 
      2 C         -80.6374   24.6779  -70.7754 C.2       0 UNK         0.4909 
      3 O         -79.6002   25.0909  -71.2888 O.2       0 UNK        -0.5240 
      4 N         -81.7953   25.3513  -70.8183 N.am      1 UNK        -0.4739 
      5 CA        -82.0532   26.6549  -71.4536 C.3       1 UNK         0.0864 
      6 C6        -81.0783   27.7752  -70.9879 C.3       11 UNK        -0.0881 
      7 S7        -81.8369   29.4380  -71.0403 S.3       11 UNK        -0.2682 
      8 C8        -80.3982   30.5379  -70.7861 C.3       11 UNK         0.0289 
      9 C9        -79.2756   30.4097  -71.8180 C.ar      11 UNK        -0.0687 
     10 C10       -79.5069   29.9546  -73.1234 C.ar      11 UNK        -0.0823 
     11 C11       -78.4437   29.7726  -74.0114 C.ar      11 UNK        -0.0830 
     12 C12       -77.1492   30.1222  -73.6200 C.ar      11 UNK        -0.1021 
     13 C13       -76.9041   30.5885  -72.3271 C.ar      11 UNK        -0.0753 
     14 C14       -77.9694   30.7343  -71.4338 C.ar      11 UNK        -0.0933 
     15 C15       -75.4769   30.8679  -71.8864 C.3       11 UNK         0.0166 
     16 S16       -74.6096   29.3025  -71.5605 S.3       11 UNK        -0.2615 
     17 C17       -72.9265   29.8752  -71.1436 C.3       11 UNK        -0.0865 
     18 CA        -72.1589   30.5827  -72.2965 C.3       10 UNK         0.0862 
     19 C         -70.6683   30.7941  -71.8962 C.2       10 UNK         0.5551 
     20 N         -69.7120   30.1020  -72.5065 N.am      10 UNK        -0.7319 
     21 O         -70.3800   31.5981  -71.0134 O.2       10 UNK        -0.5018 
     22 N         -72.3552   29.9143  -73.5914 N.am      10 UNK        -0.4509 
     23 C         -72.0208   30.4197  -74.7856 C.2       10 UNK         0.4899 
     24 O         -71.5837   31.5606  -74.9443 O.2       10 UNK        -0.4839 
     25 CA        -72.2112   29.4991  -76.0079 C.3       9 UNK         0.0222 
     26 CB        -71.1722   29.7660  -77.1165 C.3       9 UNK        -0.1966 
     27 N         -72.2558   28.0686  -75.6790 N.am      9 UNK        -0.4218 
     28 C         -71.3008   27.3231  -75.1001 C.2       9 UNK         0.5020 
     29 O         -70.2238   27.7676  -74.6985 O.2       9 UNK        -0.5274 
     30 CA        -71.6155   25.8269  -74.9221 C.3       8 UNK         0.0270 
     31 CB        -72.4170   25.5980  -73.6301 C.3       8 UNK        -0.1976 
     32 N         -72.3483   25.2626  -76.0597 N.am      8 UNK        -0.4313 
     33 C         -71.8476   25.1249  -77.2970 C.2       8 UNK         0.5041 
     34 O         -70.6776   25.3661  -77.5968 O.2       8 UNK        -0.5577 
     35 CA        -72.8249   24.6686  -78.3920 C.3       7 UNK         0.0284 
     36 CB        -72.9974   23.1404  -78.3829 C.3       7 UNK        -0.1958 
     37 N         -74.1276   25.3225  -78.2521 N.am      7 UNK        -0.4454 
     38 C         -74.3741   26.5958  -78.5937 C.2       7 UNK         0.5089 
     39 O         -73.5552   27.3283  -79.1484 O.2       7 UNK        -0.5125 
     40 CA        -75.7630   27.1559  -78.2435 C.3       6 UNK         0.0408 
     41 CB        -76.7293   26.9856  -79.4254 C.3       6 UNK        -0.1791 
     42 N         -76.3381   26.5299  -77.0520 N.am      6 UNK        -0.4762 
     43 C         -75.9307   26.7740  -75.7961 C.2       6 UNK         0.5007 
     44 O         -75.0345   27.5685  -75.5158 O.2       6 UNK        -0.5032 
     45 CA        -76.5995   25.9587  -74.6674 C.3       5 UNK         0.0783 
     46 C46       -77.7975   26.6940  -74.0208 C.3       11 UNK        -0.0857 
     47 S47       -79.0843   27.3249  -75.1691 S.3       11 UNK        -0.2512 
     48 C48       -78.6731   29.0979  -75.3551 C.3       11 UNK         0.0225 
     49 N         -76.9484   24.5975  -75.0778 N.am      5 UNK        -0.4615 
     50 C         -76.0666   23.6906  -75.5188 C.2       4 UNK         0.5053 
     51 O         -74.8521   23.8919  -75.5536 O.2       4 UNK        -0.5105 
     52 CA        -76.6173   22.3605  -76.0619 C.3       4 UNK         0.0263 
     53 CB        -76.3929   21.2346  -75.0408 C.3       4 UNK        -0.1981 
     54 N         -78.0339   22.3896  -76.4430 N.am      4 UNK        -0.4224 
     55 C         -78.5962   23.2011  -77.3508 C.2       3 UNK         0.4895 
     56 O         -77.9816   24.0736  -77.9666 O.2       3 UNK        -0.5091 
     57 CA        -80.1035   23.0257  -77.6031 C.3       3 UNK         0.0250 
     58 CB        -80.6117   21.5875  -77.3504 C.3       3 UNK        -0.1996 
     59 N         -80.9148   24.0001  -76.8639 N.am      3 UNK        -0.4254 
     60 C         -80.9824   24.1742  -75.5350 C.2       2 UNK         0.5004 
     61 O         -80.3054   23.5506  -74.7125 O.2       2 UNK        -0.5226 
     62 CA        -82.0172   25.1989  -75.0514 C.3       2 UNK         0.0269 
     63 CB        -83.4534   24.6957  -75.3016 C.3       2 UNK        -0.1926 
     64 N         -81.8362   25.4630  -73.6244 N.am      2 UNK        -0.4687 
     65 C         -82.2161   26.5817  -72.9940 C.2       1 UNK         0.5165 
     66 O         -82.7492   27.5224  -73.5849 O.2       1 UNK        -0.5079 
     67 H67       -80.3504   22.5435  -70.7527 H         1 UNK         0.0900 
     68 H68       -81.6205   23.0888  -69.6550 H         1 UNK         0.0900 
     69 H69       -79.9250   23.3469  -69.2390 H         1 UNK         0.0900 
     70 H70       -82.6092   24.9307  -70.3900 H         1 UNK         0.2959 
     71 H71       -83.0456   26.9231  -71.0870 H         1 UNK         0.1079 
     72 H72       -80.7734   27.6011  -69.9550 H         1 UNK         0.0837 
     73 H73       -80.1595   27.7524  -71.5760 H         1 UNK         0.0837 
     74 H74       -80.7495   31.5703  -70.7869 H         1 UNK         0.0685 
     75 H75       -80.0045   30.3465  -69.7865 H         1 UNK         0.0685 
     76 H76       -80.5034   29.6756  -73.4371 H         1 UNK         0.1434 
     77 H77       -76.3185   29.9646  -74.2955 H         1 UNK         0.1329 
     78 H78       -77.7761   31.0763  -70.4260 H         1 UNK         0.1335 
     79 H79       -74.9593   31.4233  -72.6695 H         1 UNK         0.0680 
     80 H80       -75.4591   31.4908  -70.9908 H         1 UNK         0.0680 
     81 H81       -72.9889   30.5329  -70.2744 H         1 UNK         0.1032 
     82 H82       -72.3726   28.9955  -70.8094 H         1 UNK         0.1032 
     83 H83       -72.5816   31.5833  -72.4016 H         1 UNK         0.0461 
     84 H84       -69.9418   29.4338  -73.2313 H         1 UNK         0.3453 
     85 H85       -68.7509   30.2464  -72.2411 H         1 UNK         0.3453 
     86 H86       -72.7367   28.9811  -73.5541 H         1 UNK         0.2984 
     87 H87       -73.1950   29.7397  -76.4134 H         1 UNK         0.0554 
     88 H88       -71.3389   29.1178  -77.9773 H         1 UNK         0.0847 
     89 H89       -70.1537   29.6005  -76.7639 H         1 UNK         0.0847 
     90 H90       -71.2306   30.7953  -77.4722 H         1 UNK         0.0847 
     91 H91       -73.1558   27.6290  -75.8545 H         1 UNK         0.3141 
     92 H92       -70.6661   25.2942  -74.8368 H         1 UNK         0.0743 
     93 H93       -73.3773   26.1139  -73.6517 H         1 UNK         0.0784 
     94 H94       -72.6110   24.5377  -73.4662 H         1 UNK         0.0784 
     95 H95       -71.8692   25.9659  -72.7613 H         1 UNK         0.0784 
     96 H96       -73.3004   24.9478  -75.8872 H         1 UNK         0.3213 
     97 H97       -72.3996   24.9517  -79.3576 H         1 UNK         0.0855 
     98 H98       -73.3906   22.7755  -77.4342 H         1 UNK         0.0814 
     99 H99       -72.0403   22.6437  -78.5471 H         1 UNK         0.0814 
    100 H100      -73.6714   22.8123  -79.1743 H         1 UNK         0.0814 
    101 H101      -74.8526   24.8070  -77.7738 H         1 UNK         0.3105 
    102 H102      -75.6516   28.2247  -78.0485 H         1 UNK         0.0547 
    103 H103      -76.3460   27.4840  -80.3168 H         1 UNK         0.0837 
    104 H104      -76.8786   25.9352  -79.6783 H         1 UNK         0.0837 
    105 H105      -77.7050   27.4193  -79.2058 H         1 UNK         0.0837 
    106 H106      -77.0622   25.8348  -77.2050 H         1 UNK         0.3020 
    107 H107      -75.8412   25.8481  -73.8890 H         1 UNK         0.1245 
    108 H108      -77.4215   27.4918  -73.3843 H         1 UNK         0.0781 
    109 H109      -78.2978   26.0187  -73.3270 H         1 UNK         0.0781 
    110 H110      -79.4873   29.5988  -75.8803 H         1 UNK         0.0836 
    111 H111      -77.7930   29.1947  -75.9928 H         1 UNK         0.0836 
    112 H112      -77.9316   24.3599  -75.0765 H         1 UNK         0.3022 
    113 H113      -76.0455   22.1255  -76.9618 H         1 UNK         0.0747 
    114 H114      -76.6774   20.2646  -75.4488 H         1 UNK         0.0793 
    115 H115      -75.3414   21.1678  -74.7568 H         1 UNK         0.0793 
    116 H116      -76.9674   21.3986  -74.1280 H         1 UNK         0.0793 
    117 H117      -78.6437   21.7524  -75.9506 H         1 UNK         0.3047 
    118 H118      -80.2554   23.2395  -78.6624 H         1 UNK         0.0822 
    119 H119      -81.6398   21.4738  -77.6947 H         1 UNK         0.0807 
    120 H120      -80.5911   21.3135  -76.2952 H         1 UNK         0.0807 
    121 H121      -80.0115   20.8567  -77.8944 H         1 UNK         0.0807 
    122 H122      -81.4926   24.5932  -77.4434 H         1 UNK         0.2946 
    123 H123      -81.8526   26.1238  -75.6091 H         1 UNK         0.1144 
    124 H124      -83.6520   23.7690  -74.7616 H         1 UNK         0.0793 
    125 H125      -83.6308   24.5014  -76.3599 H         1 UNK         0.0793 
    126 H126      -84.1939   25.4307  -74.9858 H         1 UNK         0.0793 
    127 H127      -81.3240   24.7517  -73.1173 H         1 UNK         0.2896 
@<TRIPOS>BOND
     1    1    2 1    
     2    1   67 1    
     3    1   68 1    
     4    1   69 1    
     5    2    3 2    
     6    2    4 am   BACKBONE|DICT|INTERRES
     7    4    5 1    
     8    4   70 1    
     9    5    6 1    
    10    5   65 1    
    11    5   71 1    
    12    6    7 1    
    13    6   72 1    
    14    6   73 1    
    15    7    8 1    
    16    8    9 1    
    17    8   74 1    
    18    8   75 1    
    19    9   10 ar   
    20    9   14 ar   
    21   10   11 ar   
    22   10   76 1    
    23   11   12 ar   
    24   11   48 1    
    25   12   13 ar   
    26   12   77 1    
    27   13   14 ar   
    28   13   15 1    
    29   14   78 1    
    30   15   16 1    
    31   15   79 1    
    32   15   80 1    
    33   16   17 1    
    34   17   18 1    
    35   17   81 1    
    36   17   82 1    
    37   18   19 1    
    38   18   22 1    
    39   18   83 1    
    40   19   20 am   BACKBONE|DICT|INTERRES
    41   19   21 2    
    42   20   84 1    
    43   20   85 1    
    44   22   23 am   BACKBONE|DICT|INTERRES
    45   22   86 1    
    46   23   24 2    
    47   23   25 1    
    48   25   26 1    
    49   25   27 1    
    50   25   87 1    
    51   26   88 1    
    52   26   89 1    
    53   26   90 1    
    54   27   28 am   BACKBONE|DICT|INTERRES
    55   27   91 1    
    56   28   29 2    
    57   28   30 1    
    58   30   31 1    
    59   30   32 1    
    60   30   92 1    
    61   31   93 1    
    62   31   94 1    
    63   31   95 1    
    64   32   33 am   BACKBONE|DICT|INTERRES
    65   32   96 1    
    66   33   34 2    
    67   33   35 1    
    68   35   36 1    
    69   35   37 1    
    70   35   97 1    
    71   36   98 1    
    72   36   99 1    
    73   36  100 1    
    74   37   38 am   BACKBONE|DICT|INTERRES
    75   37  101 1    
    76   38   39 2    
    77   38   40 1    
    78   40   41 1    
    79   40   42 1    
    80   40  102 1    
    81   41  103 1    
    82   41  104 1    
    83   41  105 1    
    84   42   43 am   BACKBONE|DICT|INTERRES
    85   42  106 1    
    86   43   44 2    
    87   43   45 1    
    88   45   46 1    
    89   45   49 1    
    90   45  107 1    
    91   46   47 1    
    92   46  108 1    
    93   46  109 1    
    94   47   48 1    
    95   48  110 1    
    96   48  111 1    
    97   49   50 am   BACKBONE|DICT|INTERRES
    98   49  112 1    
    99   50   51 2    
   100   50   52 1    
   101   52   53 1    
   102   52   54 1    
   103   52  113 1    
   104   53  114 1    
   105   53  115 1    
   106   53  116 1    
   107   54   55 am   BACKBONE|DICT|INTERRES
   108   54  117 1    
   109   55   56 2    
   110   55   57 1    
   111   57   58 1    
   112   57   59 1    
   113   57  118 1    
   114   58  119 1    
   115   58  120 1    
   116   58  121 1    
   117   59   60 am   BACKBONE|DICT|INTERRES
   118   59  122 1    
   119   60   61 2    
   120   60   62 1    
   121   62   63 1    
   122   62   64 1    
   123   62  123 1    
   124   63  124 1    
   125   63  125 1    
   126   63  126 1    
   127   64   65 am   BACKBONE|DICT|INTERRES
   128   64  127 1    
   129   65   66 2    
@<TRIPOS>SUBSTRUCTURE
     1 UNK         1 GROUP             0       ****    0 ROOT    
