@<TRIPOS>MOLECULE
3R135
127   129    1
SMALL
USER_CHARGES


@<TRIPOS>ATOM
      1 CA        -83.0163   25.2861  -71.5182 C.3       0 UNK        -0.1998 
      2 C         -81.6198   25.8972  -71.5885 C.2       0 UNK         0.4909 
      3 O         -80.7450   25.4928  -70.8269 O.2       0 UNK        -0.5240 
      4 N         -81.3547   26.8685  -72.4739 N.am      1 UNK        -0.4739 
      5 CA        -82.2688   27.4336  -73.4795 C.3       1 UNK         0.0864 
      6 C6        -81.7694   28.8088  -73.9883 C.3       11 UNK        -0.0881 
      7 S7        -81.6524   30.0553  -72.6624 S.3       11 UNK        -0.2682 
      8 C8        -80.0784   30.8919  -73.0765 C.3       11 UNK         0.0289 
      9 C9        -78.7908   30.1970  -72.6207 C.ar      11 UNK        -0.0687 
     10 C10       -78.7783   29.1121  -71.7318 C.ar      11 UNK        -0.0823 
     11 C11       -77.5723   28.5505  -71.2997 C.ar      11 UNK        -0.0830 
     12 C12       -76.3661   29.0970  -71.7463 C.ar      11 UNK        -0.1021 
     13 C13       -76.3560   30.1884  -72.6170 C.ar      11 UNK        -0.0753 
     14 C14       -77.5698   30.7228  -73.0593 C.ar      11 UNK        -0.0933 
     15 C15       -75.0362   30.8456  -72.9949 C.3       11 UNK         0.0166 
     16 S16       -74.6279   30.6841  -74.7604 S.3       11 UNK        -0.2615 
     17 C17       -73.0001   31.5224  -74.7695 C.3       11 UNK        -0.0865 
     18 CA        -71.8295   30.6485  -75.3151 C.3       10 UNK         0.0862 
     19 C         -70.4511   31.3774  -75.2848 C.2       10 UNK         0.5551 
     20 N         -70.3994   32.6452  -75.6733 N.am      10 UNK        -0.7319 
     21 O         -69.4148   30.8036  -74.9532 O.2       10 UNK        -0.5018 
     22 N         -71.7861   29.2951  -74.7393 N.am      10 UNK        -0.4509 
     23 C         -71.6259   28.9624  -73.4508 C.2       10 UNK         0.4899 
     24 O         -71.4843   29.7838  -72.5437 O.2       10 UNK        -0.4839 
     25 CA        -71.6461   27.4582  -73.1087 C.3       9 UNK         0.0222 
     26 CB        -72.4832   27.1777  -71.8474 C.3       9 UNK        -0.1966 
     27 N         -72.1860   26.6645  -74.2166 N.am      9 UNK        -0.4218 
     28 C         -71.4680   25.8930  -75.0430 C.2       9 UNK         0.5020 
     29 O         -70.2651   25.6668  -74.9052 O.2       9 UNK        -0.5274 
     30 CA        -72.2087   25.3056  -76.2586 C.3       8 UNK         0.0270 
     31 CB        -73.0203   24.0643  -75.8548 C.3       8 UNK        -0.1976 
     32 N         -73.0905   26.2676  -76.9281 N.am      8 UNK        -0.4313 
     33 C         -72.7230   27.4402  -77.4627 C.2       8 UNK         0.5041 
     34 O         -71.5628   27.8499  -77.4661 O.2       8 UNK        -0.5577 
     35 CA        -73.8264   28.3467  -78.0420 C.3       7 UNK         0.0284 
     36 CB        -74.1279   27.9987  -79.5131 C.3       7 UNK        -0.1958 
     37 N         -75.0435   28.3959  -77.2187 N.am      7 UNK        -0.4454 
     38 C         -75.9307   27.4193  -76.9986 C.2       7 UNK         0.5089 
     39 O         -75.8941   26.3161  -77.5464 O.2       7 UNK        -0.5125 
     40 CA        -77.0070   27.6989  -75.9422 C.3       6 UNK         0.0408 
     41 CB        -78.3726   27.9067  -76.6124 C.3       6 UNK        -0.1791 
     42 N         -77.0915   26.5932  -74.9878 N.am      6 UNK        -0.4762 
     43 C         -76.1049   26.2185  -74.1594 C.2       6 UNK         0.5007 
     44 O         -75.0121   26.7842  -74.1029 O.2       6 UNK        -0.5032 
     45 CA        -76.3556   24.9766  -73.2879 C.3       5 UNK         0.0783 
     46 C46       -77.3178   25.2674  -72.1086 C.3       11 UNK        -0.0857 
     47 S47       -76.4582   26.0395  -70.6997 S.3       11 UNK        -0.2512 
     48 C48       -77.5801   27.4151  -70.2801 C.3       11 UNK         0.0225 
     49 N         -76.8402   23.8709  -74.1158 N.am      5 UNK        -0.4615 
     50 C         -76.2916   22.6495  -74.1699 C.2       4 UNK         0.5053 
     51 O         -75.3028   22.3159  -73.5167 O.2       4 UNK        -0.5105 
     52 CA        -76.9545   21.6046  -75.0912 C.3       4 UNK         0.0263 
     53 CB        -77.7991   20.6223  -74.2631 C.3       4 UNK        -0.1981 
     54 N         -77.8003   22.1981  -76.1282 N.am      4 UNK        -0.4224 
     55 C         -77.3456   22.8750  -77.1910 C.2       3 UNK         0.4895 
     56 O         -76.1547   22.9287  -77.4976 O.2       3 UNK        -0.5091 
     57 CA        -78.3800   23.6286  -78.0552 C.3       3 UNK         0.0250 
     58 CB        -78.5226   22.9526  -79.4293 C.3       3 UNK        -0.1996 
     59 N         -79.7213   23.8007  -77.4707 N.am      3 UNK        -0.4254 
     60 C         -80.0055   24.4100  -76.3117 C.2       2 UNK         0.5004 
     61 O         -79.1478   24.8059  -75.5166 O.2       2 UNK        -0.5226 
     62 CA        -81.4872   24.5788  -75.9579 C.3       2 UNK         0.0269 
     63 CB        -82.1111   23.2423  -75.5193 C.3       2 UNK        -0.1926 
     64 N         -81.5646   25.5293  -74.8552 N.am      2 UNK        -0.4687 
     65 C         -82.4866   26.4788  -74.6745 C.2       1 UNK         0.5165 
     66 O         -83.4730   26.6201  -75.3976 O.2       1 UNK        -0.5079 
     67 H67       -83.2530   24.7438  -72.4329 H         1 UNK         0.0900 
     68 H68       -83.7734   26.0515  -71.3520 H         1 UNK         0.0900 
     69 H69       -83.0791   24.5792  -70.6911 H         1 UNK         0.0900 
     70 H70       -80.4251   27.2593  -72.4854 H         1 UNK         0.2959 
     71 H71       -83.2457   27.5899  -73.0183 H         1 UNK         0.1079 
     72 H72       -80.7958   28.7041  -74.4664 H         1 UNK         0.0837 
     73 H73       -82.4424   29.2066  -74.7510 H         1 UNK         0.0837 
     74 H74       -80.0417   31.0584  -74.1543 H         1 UNK         0.0685 
     75 H75       -80.1021   31.8813  -72.6177 H         1 UNK         0.0685 
     76 H76       -79.7037   28.7243  -71.3340 H         1 UNK         0.1434 
     77 H77       -75.4320   28.6916  -71.3847 H         1 UNK         0.1329 
     78 H78       -77.5601   31.5793  -73.7198 H         1 UNK         0.1335 
     79 H79       -75.0829   31.9043  -72.7356 H         1 UNK         0.0680 
     80 H80       -74.2214   30.4215  -72.4060 H         1 UNK         0.0680 
     81 H81       -72.7597   31.8742  -73.7646 H         1 UNK         0.1032 
     82 H82       -73.1138   32.4229  -75.3743 H         1 UNK         0.1032 
     83 H83       -72.0242   30.4813  -76.3742 H         1 UNK         0.0461 
     84 H84       -69.5087   33.1177  -75.6702 H         1 UNK         0.3453 
     85 H85       -71.2222   33.1372  -75.9830 H         1 UNK         0.3453 
     86 H86       -71.8001   28.5470  -75.4200 H         1 UNK         0.2984 
     87 H87       -70.6151   27.1671  -72.9000 H         1 UNK         0.0554 
     88 H88       -72.4955   26.1146  -71.6074 H         1 UNK         0.0847 
     89 H89       -73.5158   27.5023  -71.9723 H         1 UNK         0.0847 
     90 H90       -72.0788   27.7000  -70.9796 H         1 UNK         0.0847 
     91 H91       -73.1880   26.7666  -74.3786 H         1 UNK         0.3141 
     92 H92       -71.4547   24.9984  -76.9862 H         1 UNK         0.0743 
     93 H93       -73.8172   24.3136  -75.1540 H         1 UNK         0.0784 
     94 H94       -73.4781   23.5884  -76.7223 H         1 UNK         0.0784 
     95 H95       -72.3851   23.3193  -75.3738 H         1 UNK         0.0784 
     96 H96       -74.0752   26.0226  -77.0004 H         1 UNK         0.3213 
     97 H97       -73.4316   29.3637  -78.0297 H         1 UNK         0.0855 
     98 H98       -73.2310   28.1035  -80.1249 H         1 UNK         0.0814 
     99 H99       -74.8846   28.6626  -79.9309 H         1 UNK         0.0814 
    100 H100      -74.4777   26.9731  -79.6322 H         1 UNK         0.0814 
    101 H101      -75.1382   29.2344  -76.6578 H         1 UNK         0.3105 
    102 H102      -76.7518   28.6012  -75.3833 H         1 UNK         0.0547 
    103 H103      -78.3578   28.7820  -77.2629 H         1 UNK         0.0837 
    104 H104      -78.6562   27.0501  -77.2249 H         1 UNK         0.0837 
    105 H105      -79.1555   28.0630  -75.8739 H         1 UNK         0.0837 
    106 H106      -77.9227   26.0109  -75.0585 H         1 UNK         0.3020 
    107 H107      -75.3827   24.7023  -72.8725 H         1 UNK         0.1245 
    108 H108      -77.7446   24.3349  -71.7355 H         1 UNK         0.0781 
    109 H109      -78.1702   25.8727  -72.4229 H         1 UNK         0.0781 
    110 H110      -77.2800   27.8219  -69.3137 H         1 UNK         0.0836 
    111 H111      -78.5867   27.0175  -70.1428 H         1 UNK         0.0836 
    112 H112      -77.6461   24.0735  -74.7013 H         1 UNK         0.3022 
    113 H113      -76.1546   21.0436  -75.5794 H         1 UNK         0.0747 
    114 H114      -78.2214   19.8357  -74.8887 H         1 UNK         0.0793 
    115 H115      -77.1924   20.1346  -73.4985 H         1 UNK         0.0793 
    116 H116      -78.6215   21.1263  -73.7535 H         1 UNK         0.0793 
    117 H117      -78.7951   22.1994  -75.9590 H         1 UNK         0.3047 
    118 H118      -77.9722   24.6294  -78.2117 H         1 UNK         0.0822 
    119 H119      -79.1505   23.5403  -80.0993 H         1 UNK         0.0807 
    120 H120      -78.9583   21.9563  -79.3446 H         1 UNK         0.0807 
    121 H121      -77.5519   22.8435  -79.9156 H         1 UNK         0.0807 
    122 H122      -80.4910   23.4810  -78.0416 H         1 UNK         0.2946 
    123 H123      -82.0116   24.9722  -76.8321 H         1 UNK         0.1144 
    124 H124      -82.0811   22.5070  -76.3242 H         1 UNK         0.0793 
    125 H125      -83.1571   23.3696  -75.2396 H         1 UNK         0.0793 
    126 H126      -81.5878   22.8144  -74.6629 H         1 UNK         0.0793 
    127 H127      -80.7510   25.5247  -74.2531 H         1 UNK         0.2896 
@<TRIPOS>BOND
     1    1    2 1    
     2    1   67 1    
     3    1   68 1    
     4    1   69 1    
     5    2    3 2    
     6    2    4 am   BACKBONE|DICT|INTERRES
     7    4    5 1    
     8    4   70 1    
     9    5    6 1    
    10    5   65 1    
    11    5   71 1    
    12    6    7 1    
    13    6   72 1    
    14    6   73 1    
    15    7    8 1    
    16    8    9 1    
    17    8   74 1    
    18    8   75 1    
    19    9   10 ar   
    20    9   14 ar   
    21   10   11 ar   
    22   10   76 1    
    23   11   12 ar   
    24   11   48 1    
    25   12   13 ar   
    26   12   77 1    
    27   13   14 ar   
    28   13   15 1    
    29   14   78 1    
    30   15   16 1    
    31   15   79 1    
    32   15   80 1    
    33   16   17 1    
    34   17   18 1    
    35   17   81 1    
    36   17   82 1    
    37   18   19 1    
    38   18   22 1    
    39   18   83 1    
    40   19   20 am   BACKBONE|DICT|INTERRES
    41   19   21 2    
    42   20   84 1    
    43   20   85 1    
    44   22   23 am   BACKBONE|DICT|INTERRES
    45   22   86 1    
    46   23   24 2    
    47   23   25 1    
    48   25   26 1    
    49   25   27 1    
    50   25   87 1    
    51   26   88 1    
    52   26   89 1    
    53   26   90 1    
    54   27   28 am   BACKBONE|DICT|INTERRES
    55   27   91 1    
    56   28   29 2    
    57   28   30 1    
    58   30   31 1    
    59   30   32 1    
    60   30   92 1    
    61   31   93 1    
    62   31   94 1    
    63   31   95 1    
    64   32   33 am   BACKBONE|DICT|INTERRES
    65   32   96 1    
    66   33   34 2    
    67   33   35 1    
    68   35   36 1    
    69   35   37 1    
    70   35   97 1    
    71   36   98 1    
    72   36   99 1    
    73   36  100 1    
    74   37   38 am   BACKBONE|DICT|INTERRES
    75   37  101 1    
    76   38   39 2    
    77   38   40 1    
    78   40   41 1    
    79   40   42 1    
    80   40  102 1    
    81   41  103 1    
    82   41  104 1    
    83   41  105 1    
    84   42   43 am   BACKBONE|DICT|INTERRES
    85   42  106 1    
    86   43   44 2    
    87   43   45 1    
    88   45   46 1    
    89   45   49 1    
    90   45  107 1    
    91   46   47 1    
    92   46  108 1    
    93   46  109 1    
    94   47   48 1    
    95   48  110 1    
    96   48  111 1    
    97   49   50 am   BACKBONE|DICT|INTERRES
    98   49  112 1    
    99   50   51 2    
   100   50   52 1    
   101   52   53 1    
   102   52   54 1    
   103   52  113 1    
   104   53  114 1    
   105   53  115 1    
   106   53  116 1    
   107   54   55 am   BACKBONE|DICT|INTERRES
   108   54  117 1    
   109   55   56 2    
   110   55   57 1    
   111   57   58 1    
   112   57   59 1    
   113   57  118 1    
   114   58  119 1    
   115   58  120 1    
   116   58  121 1    
   117   59   60 am   BACKBONE|DICT|INTERRES
   118   59  122 1    
   119   60   61 2    
   120   60   62 1    
   121   62   63 1    
   122   62   64 1    
   123   62  123 1    
   124   63  124 1    
   125   63  125 1    
   126   63  126 1    
   127   64   65 am   BACKBONE|DICT|INTERRES
   128   64  127 1    
   129   65   66 2    
@<TRIPOS>SUBSTRUCTURE
     1 UNK         1 GROUP             0       ****    0 ROOT    
