@<TRIPOS>MOLECULE
3R135
127   129    1
SMALL
USER_CHARGES


@<TRIPOS>ATOM
      1 CA        -82.5605   30.9055  -75.3386 C.3       0 UNK        -0.1998 
      2 C         -81.7800   29.7544  -74.7220 C.2       0 UNK         0.4909 
      3 O         -80.6416   29.5055  -75.1190 O.2       0 UNK        -0.5240 
      4 N         -82.3797   29.0605  -73.7465 N.am      1 UNK        -0.4739 
      5 CA        -81.7974   27.8923  -73.0775 C.3       1 UNK         0.0864 
      6 C6        -82.5124   27.5863  -71.7326 C.3       11 UNK        -0.0881 
      7 S7        -82.4620   28.8421  -70.3967 S.3       11 UNK        -0.2682 
      8 C8        -81.1795   30.0732  -70.8333 C.3       11 UNK         0.0289 
      9 C9        -79.7208   29.6136  -70.7674 C.ar      11 UNK        -0.0687 
     10 C10       -79.3342   28.3032  -70.4479 C.ar      11 UNK        -0.0823 
     11 C11       -77.9831   27.9462  -70.4333 C.ar      11 UNK        -0.0830 
     12 C12       -77.0116   28.9189  -70.6704 C.ar      11 UNK        -0.1021 
     13 C13       -77.3756   30.2176  -71.0276 C.ar      11 UNK        -0.0753 
     14 C14       -78.7310   30.5568  -71.0675 C.ar      11 UNK        -0.0933 
     15 C15       -76.3102   31.2414  -71.4010 C.3       11 UNK         0.0166 
     16 S16       -75.4287   30.7745  -72.9321 S.3       11 UNK        -0.2615 
     17 C17       -74.1139   29.6782  -72.2909 C.3       11 UNK        -0.0865 
     18 CA        -72.7365   29.9725  -72.9377 C.3       10 UNK         0.0862 
     19 C         -71.5638   29.4189  -72.0700 C.2       10 UNK         0.5551 
     20 N         -70.6409   28.6213  -72.5936 N.am      10 UNK        -0.7319 
     21 O         -71.4816   29.7334  -70.8852 O.2       10 UNK        -0.5018 
     22 N         -72.7135   29.5411  -74.3441 N.am      10 UNK        -0.4509 
     23 C         -71.9006   30.0417  -75.2820 C.2       10 UNK         0.4899 
     24 O         -71.1544   31.0055  -75.1000 O.2       10 UNK        -0.4839 
     25 CA        -71.9072   29.3112  -76.6393 C.3       9 UNK         0.0222 
     26 CB        -70.7531   29.7468  -77.5662 C.3       9 UNK        -0.1966 
     27 N         -71.9273   27.8499  -76.4922 N.am      9 UNK        -0.4218 
     28 C         -71.0461   27.0833  -75.8285 C.2       9 UNK         0.5020 
     29 O         -70.0473   27.5292  -75.2627 O.2       9 UNK        -0.5274 
     30 CA        -71.3305   25.5719  -75.7273 C.3       8 UNK         0.0270 
     31 CB        -71.6909   25.1971  -74.2795 C.3       8 UNK        -0.1976 
     32 N         -72.3964   25.1096  -76.6189 N.am      8 UNK        -0.4313 
     33 C         -72.2796   24.9869  -77.9480 C.2       8 UNK         0.5041 
     34 O         -71.2264   25.1600  -78.5625 O.2       8 UNK        -0.5577 
     35 CA        -73.5637   24.6604  -78.7284 C.3       7 UNK         0.0284 
     36 CB        -73.7960   23.1420  -78.7720 C.3       7 UNK        -0.1958 
     37 N         -74.7523   25.3330  -78.1899 N.am      7 UNK        -0.4454 
     38 C         -74.9235   26.6630  -78.1421 C.2       7 UNK         0.5089 
     39 O         -74.1023   27.4723  -78.5712 O.2       7 UNK        -0.5125 
     40 CA        -76.1957   27.1861  -77.4557 C.3       6 UNK         0.0408 
     41 CB        -77.4166   27.0552  -78.3791 C.3       6 UNK        -0.1791 
     42 N         -76.4631   26.5151  -76.1845 N.am      6 UNK        -0.4762 
     43 C         -75.6856   26.5892  -75.0929 C.2       6 UNK         0.5007 
     44 O         -74.6644   27.2756  -75.0110 O.2       6 UNK        -0.5032 
     45 CA        -76.1188   25.7117  -73.9018 C.3       5 UNK         0.0783 
     46 C46       -77.2394   26.4277  -73.1080 C.3       11 UNK        -0.0857 
     47 S47       -77.9156   25.4676  -71.7023 S.3       11 UNK        -0.2512 
     48 C48       -77.5583   26.4981  -70.2345 C.3       11 UNK         0.0225 
     49 N         -76.5040   24.3695  -74.3525 N.am      5 UNK        -0.4615 
     50 C         -75.6717   23.4845  -74.9198 C.2       4 UNK         0.5053 
     51 O         -74.4731   23.6926  -75.1033 O.2       4 UNK        -0.5105 
     52 CA        -76.2870   22.1596  -75.4012 C.3       4 UNK         0.0263 
     53 CB        -76.4214   21.1713  -74.2320 C.3       4 UNK        -0.1981 
     54 N         -77.5907   22.3407  -76.0435 N.am      4 UNK        -0.4224 
     55 C         -77.7916   23.0160  -77.1853 C.2       3 UNK         0.4895 
     56 O         -76.8875   23.5020  -77.8616 O.2       3 UNK        -0.5091 
     57 CA        -79.2521   23.2376  -77.6167 C.3       3 UNK         0.0250 
     58 CB        -79.7437   22.0674  -78.4830 C.3       3 UNK        -0.1996 
     59 N         -80.1635   23.4325  -76.4836 N.am      3 UNK        -0.4254 
     60 C         -80.0559   24.4248  -75.5890 C.2       2 UNK         0.5004 
     61 O         -79.1957   25.3073  -75.6483 O.2       2 UNK        -0.5226 
     62 CA        -81.0167   24.3589  -74.3933 C.3       2 UNK         0.0269 
     63 CB        -80.5802   23.2532  -73.4157 C.3       2 UNK        -0.1926 
     64 N         -81.0587   25.6316  -73.6717 N.am      2 UNK        -0.4687 
     65 C         -81.8669   26.6491  -73.9927 C.2       1 UNK         0.5165 
     66 O         -82.6839   26.6009  -74.9177 O.2       1 UNK        -0.5079 
     67 H67       -82.0132   31.8394  -75.2132 H         1 UNK         0.0900 
     68 H68       -82.7019   30.7333  -76.4053 H         1 UNK         0.0900 
     69 H69       -83.5425   31.0240  -74.8809 H         1 UNK         0.0900 
     70 H70       -83.3253   29.2913  -73.4779 H         1 UNK         0.2959 
     71 H71       -80.7410   28.0925  -72.8909 H         1 UNK         0.1079 
     72 H72       -83.5655   27.3658  -71.9193 H         1 UNK         0.0837 
     73 H73       -82.1056   26.6723  -71.2953 H         1 UNK         0.0837 
     74 H74       -81.2914   30.9007  -70.1312 H         1 UNK         0.0685 
     75 H75       -81.3864   30.4991  -71.8133 H         1 UNK         0.0685 
     76 H76       -80.0714   27.5421  -70.2408 H         1 UNK         0.1434 
     77 H77       -75.9697   28.6402  -70.6403 H         1 UNK         0.1329 
     78 H78       -79.0204   31.5625  -71.3411 H         1 UNK         0.1335 
     79 H79       -76.7677   32.2189  -71.5606 H         1 UNK         0.0680 
     80 H80       -75.6096   31.3705  -70.5752 H         1 UNK         0.0680 
     81 H81       -74.4002   28.6386  -72.4589 H         1 UNK         0.1032 
     82 H82       -74.0582   29.8060  -71.2089 H         1 UNK         0.1032 
     83 H83       -72.5993   31.0556  -72.9233 H         1 UNK         0.0461 
     84 H84       -69.8956   28.2900  -72.0027 H         1 UNK         0.3453 
     85 H85       -70.6401   28.3784  -73.5780 H         1 UNK         0.3453 
     86 H86       -73.3056   28.7510  -74.5813 H         1 UNK         0.2984 
     87 H87       -72.8447   29.5818  -77.1268 H         1 UNK         0.0554 
     88 H88       -70.7990   30.8168  -77.7723 H         1 UNK         0.0847 
     89 H89       -70.8004   29.2307  -78.5252 H         1 UNK         0.0847 
     90 H90       -69.7781   29.5421  -77.1227 H         1 UNK         0.0847 
     91 H91       -72.7234   27.3921  -76.9203 H         1 UNK         0.3141 
     92 H92       -70.4095   25.0503  -75.9957 H         1 UNK         0.0743 
     93 H93       -70.8991   25.4890  -73.5882 H         1 UNK         0.0784 
     94 H94       -72.6071   25.6899  -73.9523 H         1 UNK         0.0784 
     95 H95       -71.8326   24.1216  -74.1717 H         1 UNK         0.0784 
     96 H96       -73.2805   24.8638  -76.1808 H         1 UNK         0.3213 
     97 H97       -73.4235   25.0128  -79.7525 H         1 UNK         0.0855 
     98 H98       -73.9799   22.7339  -77.7778 H         1 UNK         0.0814 
     99 H99       -72.9276   22.6250  -79.1826 H         1 UNK         0.0814 
    100 H100      -74.6498   22.8894  -79.4009 H         1 UNK         0.0814 
    101 H101      -75.5088   24.7302  -77.8702 H         1 UNK         0.3105 
    102 H102      -76.0470   28.2467  -77.2419 H         1 UNK         0.0547 
    103 H103      -78.3116   27.4686  -77.9133 H         1 UNK         0.0837 
    104 H104      -77.6236   26.0162  -78.6349 H         1 UNK         0.0837 
    105 H105      -77.2574   27.5951  -79.3134 H         1 UNK         0.0837 
    106 H106      -77.3077   25.9526  -76.1302 H         1 UNK         0.3020 
    107 H107      -75.2519   25.6014  -73.2464 H         1 UNK         0.1245 
    108 H108      -78.0796   26.6754  -73.7582 H         1 UNK         0.0781 
    109 H109      -76.8577   27.3858  -72.7625 H         1 UNK         0.0781 
    110 H110      -76.4926   26.4334  -70.0096 H         1 UNK         0.0836 
    111 H111      -78.0775   26.0803  -69.3708 H         1 UNK         0.0836 
    112 H112      -77.4840   24.1441  -74.2749 H         1 UNK         0.3022 
    113 H113      -75.6079   21.7266  -76.1385 H         1 UNK         0.0747 
    114 H114      -76.7799   20.1998  -74.5728 H         1 UNK         0.0793 
    115 H115      -75.4570   21.0072  -73.7489 H         1 UNK         0.0793 
    116 H116      -77.1102   21.5354  -73.4684 H         1 UNK         0.0793 
    117 H117      -78.3943   21.9651  -75.5625 H         1 UNK         0.3047 
    118 H118      -79.2798   24.1462  -78.2217 H         1 UNK         0.0822 
    119 H119      -80.7455   22.2536  -78.8705 H         1 UNK         0.0807 
    120 H120      -79.7671   21.1304  -77.9252 H         1 UNK         0.0807 
    121 H121      -79.0890   21.9183  -79.3430 H         1 UNK         0.0807 
    122 H122      -80.8934   22.7438  -76.3667 H         1 UNK         0.2946 
    123 H123      -82.0160   24.1208  -74.7662 H         1 UNK         0.1144 
    124 H124      -79.5577   23.3966  -73.0663 H         1 UNK         0.0793 
    125 H125      -80.6279   22.2693  -73.8837 H         1 UNK         0.0793 
    126 H126      -81.2293   23.2202  -72.5403 H         1 UNK         0.0793 
    127 H127      -80.3821   25.7469  -72.9303 H         1 UNK         0.2896 
@<TRIPOS>BOND
     1    1    2 1    
     2    1   67 1    
     3    1   68 1    
     4    1   69 1    
     5    2    3 2    
     6    2    4 am   BACKBONE|DICT|INTERRES
     7    4    5 1    
     8    4   70 1    
     9    5    6 1    
    10    5   65 1    
    11    5   71 1    
    12    6    7 1    
    13    6   72 1    
    14    6   73 1    
    15    7    8 1    
    16    8    9 1    
    17    8   74 1    
    18    8   75 1    
    19    9   10 ar   
    20    9   14 ar   
    21   10   11 ar   
    22   10   76 1    
    23   11   12 ar   
    24   11   48 1    
    25   12   13 ar   
    26   12   77 1    
    27   13   14 ar   
    28   13   15 1    
    29   14   78 1    
    30   15   16 1    
    31   15   79 1    
    32   15   80 1    
    33   16   17 1    
    34   17   18 1    
    35   17   81 1    
    36   17   82 1    
    37   18   19 1    
    38   18   22 1    
    39   18   83 1    
    40   19   20 am   BACKBONE|DICT|INTERRES
    41   19   21 2    
    42   20   84 1    
    43   20   85 1    
    44   22   23 am   BACKBONE|DICT|INTERRES
    45   22   86 1    
    46   23   24 2    
    47   23   25 1    
    48   25   26 1    
    49   25   27 1    
    50   25   87 1    
    51   26   88 1    
    52   26   89 1    
    53   26   90 1    
    54   27   28 am   BACKBONE|DICT|INTERRES
    55   27   91 1    
    56   28   29 2    
    57   28   30 1    
    58   30   31 1    
    59   30   32 1    
    60   30   92 1    
    61   31   93 1    
    62   31   94 1    
    63   31   95 1    
    64   32   33 am   BACKBONE|DICT|INTERRES
    65   32   96 1    
    66   33   34 2    
    67   33   35 1    
    68   35   36 1    
    69   35   37 1    
    70   35   97 1    
    71   36   98 1    
    72   36   99 1    
    73   36  100 1    
    74   37   38 am   BACKBONE|DICT|INTERRES
    75   37  101 1    
    76   38   39 2    
    77   38   40 1    
    78   40   41 1    
    79   40   42 1    
    80   40  102 1    
    81   41  103 1    
    82   41  104 1    
    83   41  105 1    
    84   42   43 am   BACKBONE|DICT|INTERRES
    85   42  106 1    
    86   43   44 2    
    87   43   45 1    
    88   45   46 1    
    89   45   49 1    
    90   45  107 1    
    91   46   47 1    
    92   46  108 1    
    93   46  109 1    
    94   47   48 1    
    95   48  110 1    
    96   48  111 1    
    97   49   50 am   BACKBONE|DICT|INTERRES
    98   49  112 1    
    99   50   51 2    
   100   50   52 1    
   101   52   53 1    
   102   52   54 1    
   103   52  113 1    
   104   53  114 1    
   105   53  115 1    
   106   53  116 1    
   107   54   55 am   BACKBONE|DICT|INTERRES
   108   54  117 1    
   109   55   56 2    
   110   55   57 1    
   111   57   58 1    
   112   57   59 1    
   113   57  118 1    
   114   58  119 1    
   115   58  120 1    
   116   58  121 1    
   117   59   60 am   BACKBONE|DICT|INTERRES
   118   59  122 1    
   119   60   61 2    
   120   60   62 1    
   121   62   63 1    
   122   62   64 1    
   123   62  123 1    
   124   63  124 1    
   125   63  125 1    
   126   63  126 1    
   127   64   65 am   BACKBONE|DICT|INTERRES
   128   64  127 1    
   129   65   66 2    
@<TRIPOS>SUBSTRUCTURE
     1 UNK         1 GROUP             0       ****    0 ROOT    
