@<TRIPOS>MOLECULE
3R135
127   129    1
SMALL
USER_CHARGES


@<TRIPOS>ATOM
      1 CA        -83.7982   25.5908  -72.8360 C.3       0 UNK        -0.1998 
      2 C         -83.0955   26.4331  -73.8900 C.2       0 UNK         0.4909 
      3 O         -83.1945   26.1327  -75.0806 O.2       0 UNK        -0.5240 
      4 N         -82.3904   27.4888  -73.4635 N.am      1 UNK        -0.4739 
      5 CA        -81.5807   28.3537  -74.3275 C.3       1 UNK         0.0864 
      6 C6        -81.2721   29.7171  -73.6488 C.3       11 UNK        -0.0881 
      7 S7        -80.2958   29.6017  -72.1056 S.3       11 UNK        -0.2682 
      8 C8        -78.6491   30.1313  -72.6825 C.3       11 UNK         0.0289 
      9 C9        -77.5434   29.4067  -71.9315 C.ar      11 UNK        -0.0687 
     10 C10       -77.3217   28.0501  -72.1809 C.ar      11 UNK        -0.0823 
     11 C11       -76.3170   27.3575  -71.5059 C.ar      11 UNK        -0.0830 
     12 C12       -75.5138   28.0369  -70.5865 C.ar      11 UNK        -0.1021 
     13 C13       -75.7127   29.3988  -70.3333 C.ar      11 UNK        -0.0753 
     14 C14       -76.7410   30.0768  -71.0006 C.ar      11 UNK        -0.0933 
     15 C15       -74.8325   30.1199  -69.3160 C.3       11 UNK         0.0166 
     16 S16       -73.0490   29.9883  -69.6999 S.3       11 UNK        -0.2615 
     17 C17       -72.6347   31.4914  -70.6646 C.3       11 UNK        -0.0865 
     18 CA        -73.6756   31.9550  -71.7229 C.3       10 UNK         0.0862 
     19 C         -73.2797   33.2965  -72.4142 C.2       10 UNK         0.5551 
     20 N         -73.6701   33.5352  -73.6602 N.am      10 UNK        -0.7319 
     21 O         -72.6403   34.1503  -71.8040 O.2       10 UNK        -0.5018 
     22 N         -74.0784   30.8731  -72.6359 N.am      10 UNK        -0.4509 
     23 C         -73.3359   30.2760  -73.5746 C.2       10 UNK         0.4899 
     24 O         -72.1735   30.5805  -73.8513 O.2       10 UNK        -0.4839 
     25 CA        -74.0767   29.1862  -74.3633 C.3       9 UNK         0.0222 
     26 CB        -75.1668   29.8064  -75.2548 C.3       9 UNK        -0.1966 
     27 N         -73.2061   28.3762  -75.2110 N.am      9 UNK        -0.4218 
     28 C         -72.3740   27.4096  -74.8068 C.2       9 UNK         0.5020 
     29 O         -72.1151   27.1736  -73.6252 O.2       9 UNK        -0.5274 
     30 CA        -71.7732   26.5289  -75.9267 C.3       8 UNK         0.0270 
     31 CB        -71.0289   25.2979  -75.3768 C.3       8 UNK        -0.1976 
     32 N         -72.8054   26.0877  -76.8805 N.am      8 UNK        -0.4313 
     33 C         -73.2775   26.8431  -77.8847 C.2       8 UNK         0.5041 
     34 O         -72.8322   27.9662  -78.1279 O.2       8 UNK        -0.5577 
     35 CA        -74.4926   26.3544  -78.6947 C.3       7 UNK         0.0284 
     36 CB        -74.3001   26.5347  -80.2158 C.3       7 UNK        -0.1958 
     37 N         -74.9800   25.0156  -78.3527 N.am      7 UNK        -0.4454 
     38 C         -74.4286   23.8349  -78.6598 C.2       7 UNK         0.5089 
     39 O         -73.3786   23.7060  -79.2915 O.2       7 UNK        -0.5125 
     40 CA        -75.1829   22.5905  -78.1447 C.3       6 UNK         0.0408 
     41 CB        -74.3655   21.2925  -78.3116 C.3       6 UNK        -0.1791 
     42 N         -75.6526   22.7111  -76.7564 N.am      6 UNK        -0.4762 
     43 C         -74.9128   23.0338  -75.6820 C.2       6 UNK         0.5007 
     44 O         -73.7294   23.3670  -75.7509 O.2       6 UNK        -0.5032 
     45 CA        -75.6060   22.9481  -74.3089 C.3       5 UNK         0.0783 
     46 C46       -74.9255   23.7825  -73.1927 C.3       11 UNK        -0.0857 
     47 S47       -75.2289   25.5788  -73.3163 S.3       11 UNK        -0.2512 
     48 C48       -76.1168   25.8728  -71.7586 C.3       11 UNK         0.0225 
     49 N         -77.0413   23.2147  -74.4228 N.am      5 UNK        -0.4615 
     50 C         -77.9975   22.5322  -73.7829 C.2       4 UNK         0.5053 
     51 O         -77.7695   21.5879  -73.0263 O.2       4 UNK        -0.5105 
     52 CA        -79.4580   22.9618  -74.0162 C.3       4 UNK         0.0263 
     53 CB        -79.9921   23.7198  -72.7899 C.3       4 UNK        -0.1981 
     54 N         -79.6534   23.7796  -75.2185 N.am      4 UNK        -0.4224 
     55 C         -79.5304   23.3223  -76.4756 C.2       3 UNK         0.4895 
     56 O         -79.2350   22.1585  -76.7482 O.2       3 UNK        -0.5091 
     57 CA        -79.7438   24.3180  -77.6314 C.3       3 UNK         0.0250 
     58 CB        -81.1584   24.1655  -78.2127 C.3       3 UNK        -0.1996 
     59 N         -79.5293   25.7173  -77.2600 N.am      3 UNK        -0.4254 
     60 C         -78.3612   26.2415  -76.8656 C.2       2 UNK         0.5004 
     61 O         -77.3074   25.6043  -76.8212 O.2       2 UNK        -0.5226 
     62 CA        -78.3839   27.7101  -76.4009 C.3       2 UNK         0.0269 
     63 CB        -77.9734   28.6493  -77.5459 C.3       2 UNK        -0.1926 
     64 N         -79.6722   28.1690  -75.8625 N.am      2 UNK        -0.4687 
     65 C         -80.3024   27.6314  -74.8090 C.2       1 UNK         0.5165 
     66 O         -79.8968   26.6233  -74.2258 O.2       1 UNK        -0.5079 
     67 H67       -83.5233   24.5425  -72.9478 H         1 UNK         0.0900 
     68 H68       -83.5367   25.9030  -71.8251 H         1 UNK         0.0900 
     69 H69       -84.8787   25.6734  -72.9498 H         1 UNK         0.0900 
     70 H70       -82.3058   27.6705  -72.4734 H         1 UNK         0.2959 
     71 H71       -82.1756   28.5623  -75.2198 H         1 UNK         0.1079 
     72 H72       -82.2129   30.2119  -73.4019 H         1 UNK         0.0837 
     73 H73       -80.7774   30.3927  -74.3487 H         1 UNK         0.0837 
     74 H74       -78.5345   29.9251  -73.7473 H         1 UNK         0.0685 
     75 H75       -78.5598   31.2125  -72.5668 H         1 UNK         0.0685 
     76 H76       -77.9408   27.5254  -72.8938 H         1 UNK         0.1434 
     77 H77       -74.7290   27.5063  -70.0645 H         1 UNK         0.1329 
     78 H78       -76.9161   31.1248  -70.7979 H         1 UNK         0.1335 
     79 H79       -75.1161   31.1670  -69.2048 H         1 UNK         0.0680 
     80 H80       -75.0024   29.6615  -68.3410 H         1 UNK         0.0680 
     81 H81       -72.4582   32.2906  -69.9424 H         1 UNK         0.1032 
     82 H82       -71.6725   31.3170  -71.1491 H         1 UNK         0.1032 
     83 H83       -74.5849   32.2175  -71.1845 H         1 UNK         0.0461 
     84 H84       -73.4210   34.4081  -74.0980 H         1 UNK         0.3453 
     85 H85       -74.1976   32.8453  -74.1694 H         1 UNK         0.3453 
     86 H86       -75.0127   30.5205  -72.4829 H         1 UNK         0.2984 
     87 H87       -74.5544   28.5187  -73.6436 H         1 UNK         0.0554 
     88 H88       -75.9354   30.3035  -74.6620 H         1 UNK         0.0847 
     89 H89       -75.6646   29.0428  -75.8494 H         1 UNK         0.0847 
     90 H90       -74.7533   30.5445  -75.9435 H         1 UNK         0.0847 
     91 H91       -73.2717   28.5269  -76.2118 H         1 UNK         0.3141 
     92 H92       -71.0401   27.1410  -76.4563 H         1 UNK         0.0743 
     93 H93       -71.6774   24.6802  -74.7547 H         1 UNK         0.0784 
     94 H94       -70.1809   25.5992  -74.7606 H         1 UNK         0.0784 
     95 H95       -70.6405   24.6736  -76.1815 H         1 UNK         0.0784 
     96 H96       -73.2376   25.1888  -76.6897 H         1 UNK         0.3213 
     97 H97       -75.3028   27.0191  -78.4026 H         1 UNK         0.0855 
     98 H98       -73.4439   25.9726  -80.5890 H         1 UNK         0.0814 
     99 H99       -74.1268   27.5824  -80.4647 H         1 UNK         0.0814 
    100 H100      -75.1825   26.2144  -80.7696 H         1 UNK         0.0814 
    101 H101      -75.8269   25.0112  -77.7844 H         1 UNK         0.3105 
    102 H102      -76.0768   22.5004  -78.7636 H         1 UNK         0.0547 
    103 H103      -74.9317   20.4210  -77.9835 H         1 UNK         0.0837 
    104 H104      -73.4374   21.3248  -77.7397 H         1 UNK         0.0837 
    105 H105      -74.0986   21.1280  -79.3563 H         1 UNK         0.0837 
    106 H106      -76.6219   22.4662  -76.6008 H         1 UNK         0.3020 
    107 H107      -75.4736   21.8992  -74.0330 H         1 UNK         0.1245 
    108 H108      -73.8471   23.6146  -73.1760 H         1 UNK         0.0781 
    109 H109      -75.2811   23.4246  -72.2257 H         1 UNK         0.0781 
    110 H110      -75.5613   25.4249  -70.9332 H         1 UNK         0.0836 
    111 H111      -77.0833   25.3676  -71.7931 H         1 UNK         0.0836 
    112 H112      -77.2987   23.9950  -75.0143 H         1 UNK         0.3022 
    113 H113      -80.0484   22.0509  -74.1346 H         1 UNK         0.0747 
    114 H114      -81.0298   24.0215  -72.9286 H         1 UNK         0.0793 
    115 H115      -79.9519   23.0949  -71.8968 H         1 UNK         0.0793 
    116 H116      -79.4070   24.6166  -72.5840 H         1 UNK         0.0793 
    117 H117      -79.8603   24.7620  -75.0639 H         1 UNK         0.3047 
    118 H118      -79.0217   24.0675  -78.4116 H         1 UNK         0.0822 
    119 H119      -81.2980   24.7966  -79.0906 H         1 UNK         0.0807 
    120 H120      -81.9248   24.4298  -77.4823 H         1 UNK         0.0807 
    121 H121      -81.3449   23.1364  -78.5234 H         1 UNK         0.0807 
    122 H122      -80.3428   26.3153  -77.2518 H         1 UNK         0.2946 
    123 H123      -77.6494   27.7906  -75.5969 H         1 UNK         0.1144 
    124 H124      -77.9006   29.6825  -77.2055 H         1 UNK         0.0793 
    125 H125      -78.6875   28.6170  -78.3697 H         1 UNK         0.0793 
    126 H126      -77.0000   28.3806  -77.9515 H         1 UNK         0.0793 
    127 H127      -80.0704   28.9874  -76.3010 H         1 UNK         0.2896 
@<TRIPOS>BOND
     1    1    2 1    
     2    1   67 1    
     3    1   68 1    
     4    1   69 1    
     5    2    3 2    
     6    2    4 am   BACKBONE|DICT|INTERRES
     7    4    5 1    
     8    4   70 1    
     9    5    6 1    
    10    5   65 1    
    11    5   71 1    
    12    6    7 1    
    13    6   72 1    
    14    6   73 1    
    15    7    8 1    
    16    8    9 1    
    17    8   74 1    
    18    8   75 1    
    19    9   10 ar   
    20    9   14 ar   
    21   10   11 ar   
    22   10   76 1    
    23   11   12 ar   
    24   11   48 1    
    25   12   13 ar   
    26   12   77 1    
    27   13   14 ar   
    28   13   15 1    
    29   14   78 1    
    30   15   16 1    
    31   15   79 1    
    32   15   80 1    
    33   16   17 1    
    34   17   18 1    
    35   17   81 1    
    36   17   82 1    
    37   18   19 1    
    38   18   22 1    
    39   18   83 1    
    40   19   20 am   BACKBONE|DICT|INTERRES
    41   19   21 2    
    42   20   84 1    
    43   20   85 1    
    44   22   23 am   BACKBONE|DICT|INTERRES
    45   22   86 1    
    46   23   24 2    
    47   23   25 1    
    48   25   26 1    
    49   25   27 1    
    50   25   87 1    
    51   26   88 1    
    52   26   89 1    
    53   26   90 1    
    54   27   28 am   BACKBONE|DICT|INTERRES
    55   27   91 1    
    56   28   29 2    
    57   28   30 1    
    58   30   31 1    
    59   30   32 1    
    60   30   92 1    
    61   31   93 1    
    62   31   94 1    
    63   31   95 1    
    64   32   33 am   BACKBONE|DICT|INTERRES
    65   32   96 1    
    66   33   34 2    
    67   33   35 1    
    68   35   36 1    
    69   35   37 1    
    70   35   97 1    
    71   36   98 1    
    72   36   99 1    
    73   36  100 1    
    74   37   38 am   BACKBONE|DICT|INTERRES
    75   37  101 1    
    76   38   39 2    
    77   38   40 1    
    78   40   41 1    
    79   40   42 1    
    80   40  102 1    
    81   41  103 1    
    82   41  104 1    
    83   41  105 1    
    84   42   43 am   BACKBONE|DICT|INTERRES
    85   42  106 1    
    86   43   44 2    
    87   43   45 1    
    88   45   46 1    
    89   45   49 1    
    90   45  107 1    
    91   46   47 1    
    92   46  108 1    
    93   46  109 1    
    94   47   48 1    
    95   48  110 1    
    96   48  111 1    
    97   49   50 am   BACKBONE|DICT|INTERRES
    98   49  112 1    
    99   50   51 2    
   100   50   52 1    
   101   52   53 1    
   102   52   54 1    
   103   52  113 1    
   104   53  114 1    
   105   53  115 1    
   106   53  116 1    
   107   54   55 am   BACKBONE|DICT|INTERRES
   108   54  117 1    
   109   55   56 2    
   110   55   57 1    
   111   57   58 1    
   112   57   59 1    
   113   57  118 1    
   114   58  119 1    
   115   58  120 1    
   116   58  121 1    
   117   59   60 am   BACKBONE|DICT|INTERRES
   118   59  122 1    
   119   60   61 2    
   120   60   62 1    
   121   62   63 1    
   122   62   64 1    
   123   62  123 1    
   124   63  124 1    
   125   63  125 1    
   126   63  126 1    
   127   64   65 am   BACKBONE|DICT|INTERRES
   128   64  127 1    
   129   65   66 2    
@<TRIPOS>SUBSTRUCTURE
     1 UNK         1 GROUP             0       ****    0 ROOT    
