@<TRIPOS>MOLECULE
3R135
127   129    1
SMALL
USER_CHARGES


@<TRIPOS>ATOM
      1 CA        -82.7256   26.6361  -70.0271 C.3       0 UNK        -0.1998 
      2 C         -83.1342   26.9456  -71.4595 C.2       0 UNK         0.4909 
      3 O         -84.2975   26.7633  -71.8193 O.2       0 UNK        -0.5240 
      4 N         -82.1833   27.4090  -72.2808 N.am      1 UNK        -0.4739 
      5 CA        -82.3925   27.7633  -73.6934 C.3       1 UNK         0.0864 
      6 C6        -81.3018   28.7321  -74.2193 C.3       11 UNK        -0.0881 
      7 S7        -81.1924   30.2621  -73.2283 S.3       11 UNK        -0.2682 
      8 C8        -79.4675   30.7865  -73.5351 C.3       11 UNK         0.0289 
      9 C9        -78.3730   29.8525  -73.0104 C.ar      11 UNK        -0.0687 
     10 C10       -78.6152   28.8651  -72.0445 C.ar      11 UNK        -0.0823 
     11 C11       -77.5951   28.0107  -71.6161 C.ar      11 UNK        -0.0830 
     12 C12       -76.3068   28.1829  -72.1286 C.ar      11 UNK        -0.1021 
     13 C13       -76.0397   29.1753  -73.0741 C.ar      11 UNK        -0.0753 
     14 C14       -77.0759   30.0035  -73.5123 C.ar      11 UNK        -0.0933 
     15 C15       -74.6389   29.3086  -73.6491 C.3       11 UNK         0.0166 
     16 S16       -73.4266   29.7717  -72.3696 S.3       11 UNK        -0.2615 
     17 C17       -73.0659   31.5212  -72.7640 C.3       11 UNK        -0.0865 
     18 CA        -71.5816   31.7564  -73.1561 C.3       10 UNK         0.0862 
     19 C         -70.6378   31.6659  -71.9175 C.2       10 UNK         0.5551 
     20 N         -69.7298   30.7005  -71.8386 N.am      10 UNK        -0.7319 
     21 O         -70.7286   32.4974  -71.0174 O.2       10 UNK        -0.5018 
     22 N         -71.1971   30.9370  -74.3186 N.am      10 UNK        -0.4509 
     23 C         -70.0912   31.0862  -75.0565 C.2       10 UNK         0.4899 
     24 O         -69.2675   31.9824  -74.8659 O.2       10 UNK        -0.4839 
     25 CA        -69.8641   30.0643  -76.1932 C.3       9 UNK         0.0222 
     26 CB        -68.4212   30.0979  -76.7331 C.3       9 UNK        -0.1966 
     27 N         -70.1964   28.6821  -75.8204 N.am      9 UNK        -0.4218 
     28 C         -71.4316   28.1669  -75.7798 C.2       9 UNK         0.5020 
     29 O         -72.4487   28.8363  -75.9676 O.2       9 UNK        -0.5274 
     30 CA        -71.5485   26.6740  -75.4276 C.3       8 UNK         0.0270 
     31 CB        -71.7016   26.4766  -73.9106 C.3       8 UNK        -0.1976 
     32 N         -72.6835   26.0568  -76.1188 N.am      8 UNK        -0.4313 
     33 C         -72.6878   25.7644  -77.4289 C.2       8 UNK         0.5041 
     34 O         -71.7002   25.8949  -78.1549 O.2       8 UNK        -0.5577 
     35 CA        -73.9909   25.2230  -78.0499 C.3       7 UNK         0.0284 
     36 CB        -73.9298   23.6905  -78.1609 C.3       7 UNK        -0.1958 
     37 N         -75.2000   25.6022  -77.3184 N.am      7 UNK        -0.4454 
     38 C         -75.6661   26.8504  -77.1791 C.2       7 UNK         0.5089 
     39 O         -75.1989   27.8212  -77.7743 O.2       7 UNK        -0.5125 
     40 CA        -76.8438   27.0645  -76.2074 C.3       6 UNK         0.0408 
     41 CB        -78.1329   27.3893  -76.9778 C.3       6 UNK        -0.1791 
     42 N         -77.1092   25.9503  -75.2903 N.am      6 UNK        -0.4762 
     43 C         -76.2685   25.4650  -74.3630 C.2       6 UNK         0.5007 
     44 O         -75.1030   25.8386  -74.2269 O.2       6 UNK        -0.5032 
     45 CA        -76.8086   24.3110  -73.5012 C.3       5 UNK         0.0783 
     46 C46       -77.8600   24.7832  -72.4602 C.3       11 UNK        -0.0857 
     47 S47       -77.0779   25.3293  -70.9051 S.3       11 UNK        -0.2512 
     48 C48       -77.8949   26.9307  -70.5794 C.3       11 UNK         0.0225 
     49 N         -77.3389   23.2635  -74.3748 N.am      5 UNK        -0.4615 
     50 C         -76.5948   22.3095  -74.9512 C.2       4 UNK         0.5053 
     51 O         -75.3903   22.1642  -74.7448 O.2       4 UNK        -0.5105 
     52 CA        -77.3048   21.3531  -75.9270 C.3       4 UNK         0.0263 
     53 CB        -77.7471   20.0748  -75.1970 C.3       4 UNK        -0.1981 
     54 N         -78.4636   21.9540  -76.5917 N.am      4 UNK        -0.4224 
     55 C         -78.3956   22.9452  -77.4917 C.2       3 UNK         0.4895 
     56 O         -77.3417   23.4301  -77.8995 O.2       3 UNK        -0.5091 
     57 CA        -79.7322   23.5234  -77.9879 C.3       3 UNK         0.0250 
     58 CB        -80.2275   22.7502  -79.2203 C.3       3 UNK        -0.1996 
     59 N         -80.7893   23.5524  -76.9686 N.am      3 UNK        -0.4254 
     60 C         -80.7054   24.1930  -75.7945 C.2       2 UNK         0.5004 
     61 O         -79.6938   24.7794  -75.3999 O.2       2 UNK        -0.5226 
     62 CA        -81.9321   24.1165  -74.8757 C.3       2 UNK         0.0269 
     63 CB        -81.7926   22.9346  -73.9025 C.3       2 UNK        -0.1926 
     64 N         -82.0675   25.3519  -74.1059 N.am      2 UNK        -0.4687 
     65 C         -82.4856   26.5226  -74.6086 C.2       1 UNK         0.5165 
     66 O         -82.9218   26.6499  -75.7541 O.2       1 UNK        -0.5079 
     67 H67       -81.6740   26.8561  -69.8447 H         1 UNK         0.0900 
     68 H68       -83.3203   27.2283  -69.3320 H         1 UNK         0.0900 
     69 H69       -82.8949   25.5822  -69.8081 H         1 UNK         0.0900 
     70 H70       -81.2500   27.5553  -71.9293 H         1 UNK         0.2959 
     71 H71       -83.3550   28.2743  -73.7719 H         1 UNK         0.1079 
     72 H72       -81.5100   29.0210  -75.2515 H         1 UNK         0.0837 
     73 H73       -80.3304   28.2345  -74.2353 H         1 UNK         0.0837 
     74 H74       -79.3431   30.9237  -74.6105 H         1 UNK         0.0685 
     75 H75       -79.3249   31.7678  -73.0807 H         1 UNK         0.0685 
     76 H76       -79.6010   28.7556  -71.6198 H         1 UNK         0.1434 
     77 H77       -75.5034   27.5368  -71.8018 H         1 UNK         0.1329 
     78 H78       -76.8739   30.7643  -74.2539 H         1 UNK         0.1335 
     79 H79       -74.6169   30.0117  -74.4823 H         1 UNK         0.0680 
     80 H80       -74.3508   28.3481  -74.0732 H         1 UNK         0.0680 
     81 H81       -73.7137   31.8643  -73.5712 H         1 UNK         0.1032 
     82 H82       -73.3403   32.1337  -71.9029 H         1 UNK         0.1032 
     83 H83       -71.5092   32.7942  -73.4871 H         1 UNK         0.0461 
     84 H84       -69.6521   30.0173  -72.5737 H         1 UNK         0.3453 
     85 H85       -69.1226   30.6549  -71.0358 H         1 UNK         0.3453 
     86 H86       -71.8315   30.1855  -74.5666 H         1 UNK         0.2984 
     87 H87       -70.5224   30.3636  -77.0116 H         1 UNK         0.0554 
     88 H88       -68.1629   31.0905  -77.1049 H         1 UNK         0.0847 
     89 H89       -68.2907   29.4041  -77.5639 H         1 UNK         0.0847 
     90 H90       -67.6950   29.8399  -75.9612 H         1 UNK         0.0847 
     91 H91       -69.4152   28.0775  -75.6078 H         1 UNK         0.3141 
     92 H92       -70.6348   26.1677  -75.7467 H         1 UNK         0.0743 
     93 H93       -72.6135   26.9350  -73.5293 H         1 UNK         0.0784 
     94 H94       -71.7313   25.4181  -73.6514 H         1 UNK         0.0784 
     95 H95       -70.8649   26.9198  -73.3692 H         1 UNK         0.0784 
     96 H96       -73.5456   25.9662  -75.5895 H         1 UNK         0.3213 
     97 H97       -74.0673   25.6383  -79.0569 H         1 UNK         0.0855 
     98 H98       -73.9197   23.2147  -77.1792 H         1 UNK         0.0814 
     99 H99       -73.0302   23.3709  -78.6888 H         1 UNK         0.0814 
    100 H100      -74.7822   23.2984  -78.7155 H         1 UNK         0.0814 
    101 H101      -75.7055   24.8590  -76.8553 H         1 UNK         0.3105 
    102 H102      -76.5914   27.9305  -75.5948 H         1 UNK         0.0547 
    103 H103      -77.9953   28.2569  -77.6243 H         1 UNK         0.0837 
    104 H104      -78.4406   26.5562  -77.6093 H         1 UNK         0.0837 
    105 H105      -78.9550   27.6181  -76.2997 H         1 UNK         0.0837 
    106 H106      -78.0436   25.5462  -75.3429 H         1 UNK         0.3020 
    107 H107      -75.9577   23.8909  -72.9587 H         1 UNK         0.1245 
    108 H108      -78.5211   23.9564  -72.1954 H         1 UNK         0.0781 
    109 H109      -78.5131   25.5611  -72.8614 H         1 UNK         0.0781 
    110 H110      -77.5699   27.2928  -69.6032 H         1 UNK         0.0836 
    111 H111      -78.9691   26.7577  -70.5002 H         1 UNK         0.0836 
    112 H112      -78.3049   23.3693  -74.6573 H         1 UNK         0.3022 
    113 H113      -76.5816   21.0756  -76.6972 H         1 UNK         0.0747 
    114 H114      -78.1799   19.3517  -75.8886 H         1 UNK         0.0793 
    115 H115      -76.8984   19.5889  -74.7131 H         1 UNK         0.0793 
    116 H116      -78.4863   20.2856  -74.4230 H         1 UNK         0.0793 
    117 H117      -79.3748   21.6133  -76.3223 H         1 UNK         0.3047 
    118 H118      -79.5449   24.5553  -78.2899 H         1 UNK         0.0822 
    119 H119      -81.1160   23.2136  -79.6498 H         1 UNK         0.0807 
    120 H120      -80.4710   21.7148  -78.9787 H         1 UNK         0.0807 
    121 H121      -79.4657   22.7320  -80.0013 H         1 UNK         0.0807 
    122 H122      -81.6508   23.0803  -77.2042 H         1 UNK         0.2946 
    123 H123      -82.8304   23.9794  -75.4825 H         1 UNK         0.1144 
    124 H124      -82.6565   22.8624  -73.2414 H         1 UNK         0.0793 
    125 H125      -80.9013   23.0249  -73.2798 H         1 UNK         0.0793 
    126 H126      -81.7200   21.9888  -74.4410 H         1 UNK         0.0793 
    127 H127      -81.7041   25.3453  -73.1650 H         1 UNK         0.2896 
@<TRIPOS>BOND
     1    1    2 1    
     2    1   67 1    
     3    1   68 1    
     4    1   69 1    
     5    2    3 2    
     6    2    4 am   BACKBONE|DICT|INTERRES
     7    4    5 1    
     8    4   70 1    
     9    5    6 1    
    10    5   65 1    
    11    5   71 1    
    12    6    7 1    
    13    6   72 1    
    14    6   73 1    
    15    7    8 1    
    16    8    9 1    
    17    8   74 1    
    18    8   75 1    
    19    9   10 ar   
    20    9   14 ar   
    21   10   11 ar   
    22   10   76 1    
    23   11   12 ar   
    24   11   48 1    
    25   12   13 ar   
    26   12   77 1    
    27   13   14 ar   
    28   13   15 1    
    29   14   78 1    
    30   15   16 1    
    31   15   79 1    
    32   15   80 1    
    33   16   17 1    
    34   17   18 1    
    35   17   81 1    
    36   17   82 1    
    37   18   19 1    
    38   18   22 1    
    39   18   83 1    
    40   19   20 am   BACKBONE|DICT|INTERRES
    41   19   21 2    
    42   20   84 1    
    43   20   85 1    
    44   22   23 am   BACKBONE|DICT|INTERRES
    45   22   86 1    
    46   23   24 2    
    47   23   25 1    
    48   25   26 1    
    49   25   27 1    
    50   25   87 1    
    51   26   88 1    
    52   26   89 1    
    53   26   90 1    
    54   27   28 am   BACKBONE|DICT|INTERRES
    55   27   91 1    
    56   28   29 2    
    57   28   30 1    
    58   30   31 1    
    59   30   32 1    
    60   30   92 1    
    61   31   93 1    
    62   31   94 1    
    63   31   95 1    
    64   32   33 am   BACKBONE|DICT|INTERRES
    65   32   96 1    
    66   33   34 2    
    67   33   35 1    
    68   35   36 1    
    69   35   37 1    
    70   35   97 1    
    71   36   98 1    
    72   36   99 1    
    73   36  100 1    
    74   37   38 am   BACKBONE|DICT|INTERRES
    75   37  101 1    
    76   38   39 2    
    77   38   40 1    
    78   40   41 1    
    79   40   42 1    
    80   40  102 1    
    81   41  103 1    
    82   41  104 1    
    83   41  105 1    
    84   42   43 am   BACKBONE|DICT|INTERRES
    85   42  106 1    
    86   43   44 2    
    87   43   45 1    
    88   45   46 1    
    89   45   49 1    
    90   45  107 1    
    91   46   47 1    
    92   46  108 1    
    93   46  109 1    
    94   47   48 1    
    95   48  110 1    
    96   48  111 1    
    97   49   50 am   BACKBONE|DICT|INTERRES
    98   49  112 1    
    99   50   51 2    
   100   50   52 1    
   101   52   53 1    
   102   52   54 1    
   103   52  113 1    
   104   53  114 1    
   105   53  115 1    
   106   53  116 1    
   107   54   55 am   BACKBONE|DICT|INTERRES
   108   54  117 1    
   109   55   56 2    
   110   55   57 1    
   111   57   58 1    
   112   57   59 1    
   113   57  118 1    
   114   58  119 1    
   115   58  120 1    
   116   58  121 1    
   117   59   60 am   BACKBONE|DICT|INTERRES
   118   59  122 1    
   119   60   61 2    
   120   60   62 1    
   121   62   63 1    
   122   62   64 1    
   123   62  123 1    
   124   63  124 1    
   125   63  125 1    
   126   63  126 1    
   127   64   65 am   BACKBONE|DICT|INTERRES
   128   64  127 1    
   129   65   66 2    
@<TRIPOS>SUBSTRUCTURE
     1 UNK         1 GROUP             0       ****    0 ROOT    
