@<TRIPOS>MOLECULE
3R135
127   129    1
SMALL
USER_CHARGES


@<TRIPOS>ATOM
      1 CA        -84.6362   27.7486  -71.0960 C.3       0 UNK        -0.1998 
      2 C         -83.6378   27.6349  -72.2377 C.2       0 UNK         0.4909 
      3 O         -82.4427   27.5012  -71.9824 O.2       0 UNK        -0.5240 
      4 N         -84.1306   27.6706  -73.4839 N.am      1 UNK        -0.4739 
      5 CA        -83.4256   27.6163  -74.7773 C.3       1 UNK         0.0864 
      6 C6        -82.5958   28.9010  -75.0988 C.3       11 UNK        -0.0881 
      7 S7        -80.7902   28.8363  -74.8174 S.3       11 UNK        -0.2682 
      8 C8        -80.5821   29.9259  -73.3773 C.3       11 UNK         0.0289 
      9 C9        -79.2567   29.6687  -72.6736 C.ar      11 UNK        -0.0687 
     10 C10       -79.0701   28.4858  -71.9525 C.ar      11 UNK        -0.0823 
     11 C11       -77.8777   28.2509  -71.2625 C.ar      11 UNK        -0.0830 
     12 C12       -76.8673   29.2150  -71.2892 C.ar      11 UNK        -0.1021 
     13 C13       -77.0351   30.3985  -72.0156 C.ar      11 UNK        -0.0753 
     14 C14       -78.2295   30.6170  -72.7117 C.ar      11 UNK        -0.0933 
     15 C15       -75.9424   31.4579  -72.0204 C.3       11 UNK         0.0166 
     16 S16       -74.6393   31.0847  -73.2333 S.3       11 UNK        -0.2615 
     17 C17       -73.6625   29.8231  -72.3422 C.3       11 UNK        -0.0865 
     18 CA        -72.2031   29.7211  -72.8592 C.3       10 UNK         0.0862 
     19 C         -71.3476   28.7369  -72.0079 C.2       10 UNK         0.5551 
     20 N         -70.5479   27.8562  -72.6000 N.am      10 UNK        -0.7319 
     21 O         -71.3958   28.7827  -70.7811 O.2       10 UNK        -0.5018 
     22 N         -72.1681   29.4099  -74.2944 N.am      10 UNK        -0.4509 
     23 C         -71.3903   30.0148  -75.1978 C.2       10 UNK         0.4899 
     24 O         -70.6296   30.9483  -74.9350 O.2       10 UNK        -0.4839 
     25 CA        -71.4810   29.4807  -76.6400 C.3       9 UNK         0.0222 
     26 CB        -70.2944   29.9248  -77.5218 C.3       9 UNK        -0.1966 
     27 N         -71.6637   28.0259  -76.7132 N.am      9 UNK        -0.4218 
     28 C         -70.8438   27.0729  -76.2398 C.2       9 UNK         0.5020 
     29 O         -69.8122   27.3210  -75.6130 O.2       9 UNK        -0.5274 
     30 CA        -71.2312   25.5957  -76.4744 C.3       8 UNK         0.0270 
     31 CB        -71.0689   24.7676  -75.1865 C.3       8 UNK        -0.1976 
     32 N         -72.5951   25.4165  -76.9776 N.am      8 UNK        -0.4313 
     33 C         -73.0002   25.6095  -78.2396 C.2       8 UNK         0.5041 
     34 O         -72.2390   25.8729  -79.1703 O.2       8 UNK        -0.5577 
     35 CA        -74.5188   25.5790  -78.4873 C.3       7 UNK         0.0284 
     36 CB        -74.9979   24.1557  -78.8103 C.3       7 UNK        -0.1958 
     37 N         -75.2810   26.1277  -77.3581 N.am      7 UNK        -0.4454 
     38 C         -75.2683   27.4209  -76.9984 C.2       7 UNK         0.5089 
     39 O         -74.6525   28.2910  -77.6135 O.2       7 UNK        -0.5125 
     40 CA        -76.0248   27.8028  -75.7141 C.3       6 UNK         0.0408 
     41 CB        -77.4833   28.1540  -76.0215 C.3       6 UNK        -0.1791 
     42 N         -75.9776   26.7601  -74.6866 N.am      6 UNK        -0.4762 
     43 C         -74.8593   26.4252  -74.0275 C.2       6 UNK         0.5007 
     44 O         -73.7730   26.9752  -74.2119 O.2       6 UNK        -0.5032 
     45 CA        -74.9441   25.2288  -73.0608 C.3       5 UNK         0.0783 
     46 C46       -75.5012   25.6227  -71.6654 C.3       11 UNK        -0.0857 
     47 S47       -77.3243   25.5509  -71.5331 S.3       11 UNK        -0.2512 
     48 C48       -77.7064   26.9698  -70.4620 C.3       11 UNK         0.0225 
     49 N         -75.6569   24.0946  -73.6584 N.am      5 UNK        -0.4615 
     50 C         -75.2618   23.4261  -74.7486 C.2       4 UNK         0.5053 
     51 O         -74.2141   23.6563  -75.3488 O.2       4 UNK        -0.5105 
     52 CA        -76.2457   22.4040  -75.3180 C.3       4 UNK         0.0263 
     53 CB        -76.7071   21.3736  -74.2710 C.3       4 UNK        -0.1981 
     54 N         -77.3889   23.1458  -75.8355 N.am      4 UNK        -0.4224 
     55 C         -77.9935   22.9611  -77.0112 C.2       3 UNK         0.4895 
     56 O         -77.7014   22.0597  -77.7984 O.2       3 UNK        -0.5091 
     57 CA        -79.1138   23.9670  -77.3544 C.3       3 UNK         0.0250 
     58 CB        -79.7886   23.6656  -78.7054 C.3       3 UNK        -0.1996 
     59 N         -80.1446   24.0406  -76.3132 N.am      3 UNK        -0.4254 
     60 C         -80.0102   24.6239  -75.1146 C.2       2 UNK         0.5004 
     61 O         -78.9799   25.2000  -74.7511 O.2       2 UNK        -0.5226 
     62 CA        -81.2063   24.4987  -74.1554 C.3       2 UNK         0.0269 
     63 CB        -80.7465   24.1262  -72.7358 C.3       2 UNK        -0.1926 
     64 N         -81.9818   25.7340  -74.0881 N.am      2 UNK        -0.4687 
     65 C         -82.7094   26.2738  -75.0726 C.2       1 UNK         0.5165 
     66 O         -82.8614   25.7383  -76.1720 O.2       1 UNK        -0.5079 
     67 H67       -84.3930   28.6078  -70.4716 H         1 UNK         0.0900 
     68 H68       -85.6581   27.8689  -71.4552 H         1 UNK         0.0900 
     69 H69       -84.5975   26.8542  -70.4747 H         1 UNK         0.0900 
     70 H70       -85.1346   27.7424  -73.5789 H         1 UNK         0.2959 
     71 H71       -84.2535   27.6277  -75.4890 H         1 UNK         0.1079 
     72 H72       -82.7168   29.1287  -76.1592 H         1 UNK         0.0837 
     73 H73       -83.0159   29.7652  -74.5820 H         1 UNK         0.0837 
     74 H74       -80.6552   30.9639  -73.7050 H         1 UNK         0.0685 
     75 H75       -81.3955   29.7710  -72.6690 H         1 UNK         0.0685 
     76 H76       -79.8586   27.7458  -71.9283 H         1 UNK         0.1434 
     77 H77       -75.9528   29.0478  -70.7381 H         1 UNK         0.1329 
     78 H78       -78.3662   31.5341  -73.2681 H         1 UNK         0.1335 
     79 H79       -76.3697   32.4319  -72.2635 H         1 UNK         0.0680 
     80 H80       -75.5107   31.5613  -71.0239 H         1 UNK         0.0680 
     81 H81       -73.6638   30.0730  -71.2798 H         1 UNK         0.1032 
     82 H82       -74.1700   28.8631  -72.4302 H         1 UNK         0.1032 
     83 H83       -71.7465   30.6990  -72.6974 H         1 UNK         0.0461 
     84 H84       -69.9965   27.2339  -72.0317 H         1 UNK         0.3453 
     85 H85       -70.4645   27.8253  -73.6081 H         1 UNK         0.3453 
     86 H86       -72.7316   28.6111  -74.5700 H         1 UNK         0.2984 
     87 H87       -72.3859   29.9182  -77.0639 H         1 UNK         0.0554 
     88 H88       -70.2353   31.0123  -77.5811 H         1 UNK         0.0847 
     89 H89       -70.3961   29.5521  -78.5410 H         1 UNK         0.0847 
     90 H90       -69.3420   29.5688  -77.1275 H         1 UNK         0.0847 
     91 H91       -72.5136   27.7284  -77.1757 H         1 UNK         0.3141 
     92 H92       -70.5365   25.2010  -77.2184 H         1 UNK         0.0743 
     93 H93       -71.7059   25.1433  -74.3852 H         1 UNK         0.0784 
     94 H94       -71.3233   23.7207  -75.3529 H         1 UNK         0.0784 
     95 H95       -70.0401   24.7946  -74.8254 H         1 UNK         0.0784 
     96 H96       -73.2841   25.1184  -76.2929 H         1 UNK         0.3213 
     97 H97       -74.7183   26.2051  -79.3600 H         1 UNK         0.0855 
     98 H98       -74.8556   23.4747  -77.9715 H         1 UNK         0.0814 
     99 H99       -74.4466   23.7440  -79.6569 H         1 UNK         0.0814 
    100 H100      -76.0535   24.1445  -79.0810 H         1 UNK         0.0814 
    101 H101      -75.7785   25.4743  -76.7733 H         1 UNK         0.3105 
    102 H102      -75.5476   28.6970  -75.3061 H         1 UNK         0.0547 
    103 H103      -77.5511   28.9321  -76.7828 H         1 UNK         0.0837 
    104 H104      -78.0492   27.2923  -76.3765 H         1 UNK         0.0837 
    105 H105      -77.9738   28.5339  -75.1268 H         1 UNK         0.0837 
    106 H106      -76.8463   26.2903  -74.4599 H         1 UNK         0.3020 
    107 H107      -73.9116   24.9037  -72.9109 H         1 UNK         0.1245 
    108 H108      -75.1407   26.6078  -71.3627 H         1 UNK         0.0781 
    109 H109      -75.1065   24.9310  -70.9198 H         1 UNK         0.0781 
    110 H110      -76.9352   27.0808  -69.6983 H         1 UNK         0.0836 
    111 H111      -78.6326   26.7588  -69.9253 H         1 UNK         0.0836 
    112 H112      -76.5408   23.8680  -73.2248 H         1 UNK         0.3022 
    113 H113      -75.7388   21.8750  -76.1282 H         1 UNK         0.0747 
    114 H114      -77.3287   20.6051  -74.7308 H         1 UNK         0.0793 
    115 H115      -75.8534   20.8693  -73.8164 H         1 UNK         0.0793 
    116 H116      -77.2883   21.8287  -73.4684 H         1 UNK         0.0793 
    117 H117      -77.7341   23.9152  -75.2645 H         1 UNK         0.3047 
    118 H118      -78.6423   24.9488  -77.4360 H         1 UNK         0.0822 
    119 H119      -79.0580   23.6596  -79.5155 H         1 UNK         0.0807 
    120 H120      -80.5357   24.4203  -78.9525 H         1 UNK         0.0807 
    121 H121      -80.2816   22.6927  -78.7026 H         1 UNK         0.0807 
    122 H122      -81.0262   23.5987  -76.5327 H         1 UNK         0.2946 
    123 H123      -81.8626   23.7034  -74.5151 H         1 UNK         0.1144 
    124 H124      -81.5966   23.9211  -72.0852 H         1 UNK         0.0793 
    125 H125      -80.1658   24.9288  -72.2800 H         1 UNK         0.0793 
    126 H126      -80.1200   23.2333  -72.7459 H         1 UNK         0.0793 
    127 H127      -81.9139   26.2781  -73.2302 H         1 UNK         0.2896 
@<TRIPOS>BOND
     1    1    2 1    
     2    1   67 1    
     3    1   68 1    
     4    1   69 1    
     5    2    3 2    
     6    2    4 am   BACKBONE|DICT|INTERRES
     7    4    5 1    
     8    4   70 1    
     9    5    6 1    
    10    5   65 1    
    11    5   71 1    
    12    6    7 1    
    13    6   72 1    
    14    6   73 1    
    15    7    8 1    
    16    8    9 1    
    17    8   74 1    
    18    8   75 1    
    19    9   10 ar   
    20    9   14 ar   
    21   10   11 ar   
    22   10   76 1    
    23   11   12 ar   
    24   11   48 1    
    25   12   13 ar   
    26   12   77 1    
    27   13   14 ar   
    28   13   15 1    
    29   14   78 1    
    30   15   16 1    
    31   15   79 1    
    32   15   80 1    
    33   16   17 1    
    34   17   18 1    
    35   17   81 1    
    36   17   82 1    
    37   18   19 1    
    38   18   22 1    
    39   18   83 1    
    40   19   20 am   BACKBONE|DICT|INTERRES
    41   19   21 2    
    42   20   84 1    
    43   20   85 1    
    44   22   23 am   BACKBONE|DICT|INTERRES
    45   22   86 1    
    46   23   24 2    
    47   23   25 1    
    48   25   26 1    
    49   25   27 1    
    50   25   87 1    
    51   26   88 1    
    52   26   89 1    
    53   26   90 1    
    54   27   28 am   BACKBONE|DICT|INTERRES
    55   27   91 1    
    56   28   29 2    
    57   28   30 1    
    58   30   31 1    
    59   30   32 1    
    60   30   92 1    
    61   31   93 1    
    62   31   94 1    
    63   31   95 1    
    64   32   33 am   BACKBONE|DICT|INTERRES
    65   32   96 1    
    66   33   34 2    
    67   33   35 1    
    68   35   36 1    
    69   35   37 1    
    70   35   97 1    
    71   36   98 1    
    72   36   99 1    
    73   36  100 1    
    74   37   38 am   BACKBONE|DICT|INTERRES
    75   37  101 1    
    76   38   39 2    
    77   38   40 1    
    78   40   41 1    
    79   40   42 1    
    80   40  102 1    
    81   41  103 1    
    82   41  104 1    
    83   41  105 1    
    84   42   43 am   BACKBONE|DICT|INTERRES
    85   42  106 1    
    86   43   44 2    
    87   43   45 1    
    88   45   46 1    
    89   45   49 1    
    90   45  107 1    
    91   46   47 1    
    92   46  108 1    
    93   46  109 1    
    94   47   48 1    
    95   48  110 1    
    96   48  111 1    
    97   49   50 am   BACKBONE|DICT|INTERRES
    98   49  112 1    
    99   50   51 2    
   100   50   52 1    
   101   52   53 1    
   102   52   54 1    
   103   52  113 1    
   104   53  114 1    
   105   53  115 1    
   106   53  116 1    
   107   54   55 am   BACKBONE|DICT|INTERRES
   108   54  117 1    
   109   55   56 2    
   110   55   57 1    
   111   57   58 1    
   112   57   59 1    
   113   57  118 1    
   114   58  119 1    
   115   58  120 1    
   116   58  121 1    
   117   59   60 am   BACKBONE|DICT|INTERRES
   118   59  122 1    
   119   60   61 2    
   120   60   62 1    
   121   62   63 1    
   122   62   64 1    
   123   62  123 1    
   124   63  124 1    
   125   63  125 1    
   126   63  126 1    
   127   64   65 am   BACKBONE|DICT|INTERRES
   128   64  127 1    
   129   65   66 2    
@<TRIPOS>SUBSTRUCTURE
     1 UNK         1 GROUP             0       ****    0 ROOT    
