@<TRIPOS>MOLECULE
3R135
127   129    1
SMALL
USER_CHARGES


@<TRIPOS>ATOM
      1 CA        -80.4304   27.1250  -77.5149 C.3       0 UNK        -0.1998 
      2 C         -80.3937   26.8082  -76.0286 C.2       0 UNK         0.4909 
      3 O         -79.6535   25.9160  -75.6138 O.2       0 UNK        -0.5240 
      4 N         -81.1742   27.5328  -75.2166 N.am      1 UNK        -0.4739 
      5 CA        -81.2747   27.3228  -73.7696 C.3       1 UNK         0.0864 
      6 C6        -82.1036   28.4254  -73.0655 C.3       11 UNK        -0.0881 
      7 S7        -81.2963   30.0621  -73.0992 S.3       11 UNK        -0.2682 
      8 C8        -80.8169   30.2889  -71.3521 C.3       11 UNK         0.0289 
      9 C9        -79.4238   29.7432  -71.0702 C.ar      11 UNK        -0.0687 
     10 C10       -79.2078   28.3656  -70.9602 C.ar      11 UNK        -0.0823 
     11 C11       -77.9178   27.8642  -70.7636 C.ar      11 UNK        -0.0830 
     12 C12       -76.8535   28.7532  -70.5928 C.ar      11 UNK        -0.1021 
     13 C13       -77.0570   30.1316  -70.6859 C.ar      11 UNK        -0.0753 
     14 C14       -78.3432   30.6211  -70.9307 C.ar      11 UNK        -0.0933 
     15 C15       -75.8852   31.0890  -70.5254 C.3       11 UNK         0.0166 
     16 S16       -75.2606   31.6980  -72.1259 S.3       11 UNK        -0.2615 
     17 C17       -74.5371   30.2032  -72.8899 C.3       11 UNK        -0.0865 
     18 CA        -72.9813   30.2023  -72.8951 C.3       10 UNK         0.0862 
     19 C         -72.3763   29.4429  -71.6741 C.2       10 UNK         0.5551 
     20 N         -71.5345   28.4314  -71.8583 N.am      10 UNK        -0.7319 
     21 O         -72.6638   29.7849  -70.5310 O.2       10 UNK        -0.5018 
     22 N         -72.4613   29.7505  -74.1945 N.am      10 UNK        -0.4509 
     23 C         -71.2785   30.1154  -74.7054 C.2       10 UNK         0.4899 
     24 O         -70.5305   30.9384  -74.1743 O.2       10 UNK        -0.4839 
     25 CA        -70.8641   29.4480  -76.0307 C.3       9 UNK         0.0222 
     26 CB        -69.3564   29.5919  -76.3289 C.3       9 UNK        -0.1966 
     27 N         -71.2766   28.0434  -76.1367 N.am      9 UNK        -0.4218 
     28 C         -70.9377   27.0236  -75.3300 C.2       9 UNK         0.5020 
     29 O         -70.2487   27.1626  -74.3181 O.2       9 UNK        -0.5274 
     30 CA        -71.4613   25.6122  -75.6807 C.3       8 UNK         0.0270 
     31 CB        -72.1777   24.9754  -74.4769 C.3       8 UNK        -0.1976 
     32 N         -72.3610   25.5884  -76.8376 N.am      8 UNK        -0.4313 
     33 C         -71.9802   25.6751  -78.1197 C.2       8 UNK         0.5041 
     34 O         -70.8062   25.6667  -78.4894 O.2       8 UNK        -0.5577 
     35 CA        -73.0999   25.8753  -79.1552 C.3       7 UNK         0.0284 
     36 CB        -73.5911   24.5226  -79.6935 C.3       7 UNK        -0.1958 
     37 N         -74.2272   26.6413  -78.6079 N.am      7 UNK        -0.4454 
     38 C         -74.1756   27.9498  -78.3120 C.2       7 UNK         0.5089 
     39 O         -73.1879   28.6542  -78.5164 O.2       7 UNK        -0.5125 
     40 CA        -75.4060   28.5646  -77.6213 C.3       6 UNK         0.0408 
     41 CB        -76.4653   28.9703  -78.6577 C.3       6 UNK        -0.1791 
     42 N         -76.0054   27.6655  -76.6335 N.am      6 UNK        -0.4762 
     43 C         -75.4200   27.2821  -75.4883 C.2       6 UNK         0.5007 
     44 O         -74.3357   27.7172  -75.1002 O.2       6 UNK        -0.5032 
     45 CA        -76.1499   26.2017  -74.6609 C.3       5 UNK         0.0783 
     46 C46       -76.9859   26.8618  -73.5418 C.3       11 UNK        -0.0857 
     47 S47       -77.8609   25.6636  -72.4721 S.3       11 UNK        -0.2512 
     48 C48       -77.6535   26.3645  -70.7961 C.3       11 UNK         0.0225 
     49 N         -76.9503   25.3094  -75.5078 N.am      5 UNK        -0.4615 
     50 C         -76.4480   24.4738  -76.4241 C.2       4 UNK         0.5053 
     51 O         -75.2408   24.3646  -76.6457 O.2       4 UNK        -0.5105 
     52 CA        -77.4663   23.6511  -77.2251 C.3       4 UNK         0.0263 
     53 CB        -76.8134   22.5792  -78.1207 C.3       4 UNK        -0.1981 
     54 N         -78.4274   23.0294  -76.3159 N.am      4 UNK        -0.4224 
     55 C         -79.6928   22.7257  -76.6306 C.2       3 UNK         0.4895 
     56 O         -80.2126   22.9607  -77.7220 O.2       3 UNK        -0.5091 
     57 CA        -80.5141   22.0401  -75.5365 C.3       3 UNK         0.0250 
     58 CB        -79.8854   20.6882  -75.1315 C.3       3 UNK        -0.1996 
     59 N         -80.6632   22.9342  -74.3879 N.am      3 UNK        -0.4254 
     60 C         -81.5167   22.7395  -73.3731 C.2       2 UNK         0.5004 
     61 O         -82.2736   21.7712  -73.2897 O.2       2 UNK        -0.5226 
     62 CA        -81.5394   23.7921  -72.2513 C.3       2 UNK         0.0269 
     63 CB        -80.6432   23.3493  -71.0829 C.3       2 UNK        -0.1926 
     64 N         -81.1283   25.1275  -72.6879 N.am      2 UNK        -0.4687 
     65 C         -81.8692   25.9350  -73.4570 C.2       1 UNK         0.5165 
     66 O         -82.9834   25.6374  -73.8935 O.2       1 UNK        -0.5079 
     67 H67       -79.4620   27.5007  -77.8429 H         1 UNK         0.0900 
     68 H68       -81.1860   27.8733  -77.7531 H         1 UNK         0.0900 
     69 H69       -80.6559   26.2216  -78.0815 H         1 UNK         0.0900 
     70 H70       -81.7686   28.2541  -75.5989 H         1 UNK         0.2959 
     71 H71       -80.2566   27.3563  -73.3794 H         1 UNK         0.1079 
     72 H72       -83.0839   28.5206  -73.5367 H         1 UNK         0.0837 
     73 H73       -82.3064   28.1519  -72.0284 H         1 UNK         0.0837 
     74 H74       -81.5451   29.8256  -70.6852 H         1 UNK         0.0685 
     75 H75       -80.8503   31.3563  -71.1281 H         1 UNK         0.0685 
     76 H76       -80.0360   27.6806  -71.0660 H         1 UNK         0.1434 
     77 H77       -75.8558   28.3713  -70.4228 H         1 UNK         0.1329 
     78 H78       -78.4990   31.6878  -71.0177 H         1 UNK         0.1335 
     79 H79       -75.0755   30.6169  -69.9687 H         1 UNK         0.0680 
     80 H80       -76.2003   31.9450  -69.9269 H         1 UNK         0.0680 
     81 H81       -74.9190   30.1854  -73.9120 H         1 UNK         0.1032 
     82 H82       -74.9308   29.2976  -72.4325 H         1 UNK         0.1032 
     83 H83       -72.6529   31.2366  -72.7761 H         1 UNK         0.0461 
     84 H84       -71.1519   27.9626  -71.0531 H         1 UNK         0.3453 
     85 H85       -71.2439   28.1489  -72.7869 H         1 UNK         0.3453 
     86 H86       -73.0070   29.0324  -74.6643 H         1 UNK         0.2984 
     87 H87       -71.4047   29.9802  -76.8143 H         1 UNK         0.0554 
     88 H88       -69.0952   29.1327  -77.2823 H         1 UNK         0.0847 
     89 H89       -68.7452   29.1277  -75.5541 H         1 UNK         0.0847 
     90 H90       -69.0657   30.6415  -76.3870 H         1 UNK         0.0847 
     91 H91       -71.8826   27.8411  -76.9219 H         1 UNK         0.3141 
     92 H92       -70.5893   24.9985  -75.9156 H         1 UNK         0.0743 
     93 H93       -72.9907   25.6028  -74.1135 H         1 UNK         0.0784 
     94 H94       -72.5902   23.9975  -74.7267 H         1 UNK         0.0784 
     95 H95       -71.4873   24.8317  -73.6447 H         1 UNK         0.0784 
     96 H96       -73.3538   25.5396  -76.6409 H         1 UNK         0.3213 
     97 H97       -72.6829   26.4414  -79.9913 H         1 UNK         0.0855 
     98 H98       -73.9337   23.8680  -78.8924 H         1 UNK         0.0814 
     99 H99       -72.7859   23.9995  -80.2110 H         1 UNK         0.0814 
    100 H100      -74.4070   24.6457  -80.4057 H         1 UNK         0.0814 
    101 H101      -75.0570   26.1199  -78.3653 H         1 UNK         0.3105 
    102 H102      -75.0781   29.4662  -77.0990 H         1 UNK         0.0547 
    103 H103      -76.0459   29.6584  -79.3931 H         1 UNK         0.0837 
    104 H104      -76.8537   28.1092  -79.2028 H         1 UNK         0.0837 
    105 H105      -77.3072   29.4780  -78.1866 H         1 UNK         0.0837 
    106 H106      -76.9038   27.2653  -76.8608 H         1 UNK         0.3020 
    107 H107      -75.3797   25.5905  -74.1866 H         1 UNK         0.1245 
    108 H108      -77.7276   27.5457  -73.9597 H         1 UNK         0.0781 
    109 H109      -76.3243   27.4666  -72.9235 H         1 UNK         0.0781 
    110 H110      -76.6441   26.1424  -70.4461 H         1 UNK         0.0836 
    111 H111      -78.3328   25.8577  -70.1092 H         1 UNK         0.0836 
    112 H112      -77.9633   25.3976  -75.4219 H         1 UNK         0.3022 
    113 H113      -77.9937   24.3607  -77.8665 H         1 UNK         0.0747 
    114 H114      -77.5615   22.0128  -78.6754 H         1 UNK         0.0793 
    115 H115      -76.1507   23.0348  -78.8559 H         1 UNK         0.0793 
    116 H116      -76.2233   21.8723  -77.5364 H         1 UNK         0.0793 
    117 H117      -78.0850   22.8185  -75.3884 H         1 UNK         0.3047 
    118 H118      -81.5072   21.8484  -75.9491 H         1 UNK         0.0822 
    119 H119      -79.6673   20.0792  -76.0101 H         1 UNK         0.0807 
    120 H120      -80.5587   20.1055  -74.5031 H         1 UNK         0.0807 
    121 H121      -78.9522   20.8184  -74.5829 H         1 UNK         0.0807 
    122 H122      -80.1377   23.7995  -74.4217 H         1 UNK         0.2946 
    123 H123      -82.5682   23.8541  -71.8882 H         1 UNK         0.1144 
    124 H124      -80.9517   22.3743  -70.7031 H         1 UNK         0.0793 
    125 H125      -80.6980   24.0516  -70.2509 H         1 UNK         0.0793 
    126 H126      -79.5982   23.2649  -71.3839 H         1 UNK         0.0793 
    127 H127      -80.1991   25.4220  -72.4155 H         1 UNK         0.2896 
@<TRIPOS>BOND
     1    1    2 1    
     2    1   67 1    
     3    1   68 1    
     4    1   69 1    
     5    2    3 2    
     6    2    4 am   BACKBONE|DICT|INTERRES
     7    4    5 1    
     8    4   70 1    
     9    5    6 1    
    10    5   65 1    
    11    5   71 1    
    12    6    7 1    
    13    6   72 1    
    14    6   73 1    
    15    7    8 1    
    16    8    9 1    
    17    8   74 1    
    18    8   75 1    
    19    9   10 ar   
    20    9   14 ar   
    21   10   11 ar   
    22   10   76 1    
    23   11   12 ar   
    24   11   48 1    
    25   12   13 ar   
    26   12   77 1    
    27   13   14 ar   
    28   13   15 1    
    29   14   78 1    
    30   15   16 1    
    31   15   79 1    
    32   15   80 1    
    33   16   17 1    
    34   17   18 1    
    35   17   81 1    
    36   17   82 1    
    37   18   19 1    
    38   18   22 1    
    39   18   83 1    
    40   19   20 am   BACKBONE|DICT|INTERRES
    41   19   21 2    
    42   20   84 1    
    43   20   85 1    
    44   22   23 am   BACKBONE|DICT|INTERRES
    45   22   86 1    
    46   23   24 2    
    47   23   25 1    
    48   25   26 1    
    49   25   27 1    
    50   25   87 1    
    51   26   88 1    
    52   26   89 1    
    53   26   90 1    
    54   27   28 am   BACKBONE|DICT|INTERRES
    55   27   91 1    
    56   28   29 2    
    57   28   30 1    
    58   30   31 1    
    59   30   32 1    
    60   30   92 1    
    61   31   93 1    
    62   31   94 1    
    63   31   95 1    
    64   32   33 am   BACKBONE|DICT|INTERRES
    65   32   96 1    
    66   33   34 2    
    67   33   35 1    
    68   35   36 1    
    69   35   37 1    
    70   35   97 1    
    71   36   98 1    
    72   36   99 1    
    73   36  100 1    
    74   37   38 am   BACKBONE|DICT|INTERRES
    75   37  101 1    
    76   38   39 2    
    77   38   40 1    
    78   40   41 1    
    79   40   42 1    
    80   40  102 1    
    81   41  103 1    
    82   41  104 1    
    83   41  105 1    
    84   42   43 am   BACKBONE|DICT|INTERRES
    85   42  106 1    
    86   43   44 2    
    87   43   45 1    
    88   45   46 1    
    89   45   49 1    
    90   45  107 1    
    91   46   47 1    
    92   46  108 1    
    93   46  109 1    
    94   47   48 1    
    95   48  110 1    
    96   48  111 1    
    97   49   50 am   BACKBONE|DICT|INTERRES
    98   49  112 1    
    99   50   51 2    
   100   50   52 1    
   101   52   53 1    
   102   52   54 1    
   103   52  113 1    
   104   53  114 1    
   105   53  115 1    
   106   53  116 1    
   107   54   55 am   BACKBONE|DICT|INTERRES
   108   54  117 1    
   109   55   56 2    
   110   55   57 1    
   111   57   58 1    
   112   57   59 1    
   113   57  118 1    
   114   58  119 1    
   115   58  120 1    
   116   58  121 1    
   117   59   60 am   BACKBONE|DICT|INTERRES
   118   59  122 1    
   119   60   61 2    
   120   60   62 1    
   121   62   63 1    
   122   62   64 1    
   123   62  123 1    
   124   63  124 1    
   125   63  125 1    
   126   63  126 1    
   127   64   65 am   BACKBONE|DICT|INTERRES
   128   64  127 1    
   129   65   66 2    
@<TRIPOS>SUBSTRUCTURE
     1 UNK         1 GROUP             0       ****    0 ROOT    
