@<TRIPOS>MOLECULE
3R135
127   129    1
SMALL
USER_CHARGES


@<TRIPOS>ATOM
      1 CA        -82.6078   27.2347  -70.0170 C.3       0 UNK        -0.1998 
      2 C         -83.2395   27.2649  -71.4006 C.2       0 UNK         0.4909 
      3 O         -84.3662   26.8001  -71.5715 O.2       0 UNK        -0.5240 
      4 N         -82.5196   27.8072  -72.3908 N.am      1 UNK        -0.4739 
      5 CA        -82.9499   27.9025  -73.7923 C.3       1 UNK         0.0864 
      6 C6        -82.1926   29.0312  -74.5417 C.3       11 UNK        -0.0881 
      7 S7        -80.3906   28.7586  -74.6646 S.3       11 UNK        -0.2682 
      8 C8        -79.7367   29.8414  -73.3604 C.3       11 UNK         0.0289 
      9 C9        -78.4458   29.2662  -72.8012 C.ar      11 UNK        -0.0687 
     10 C10       -78.4999   28.2384  -71.8554 C.ar      11 UNK        -0.0823 
     11 C11       -77.3268   27.6865  -71.3361 C.ar      11 UNK        -0.0830 
     12 C12       -76.0906   28.1807  -71.7600 C.ar      11 UNK        -0.1021 
     13 C13       -76.0222   29.2014  -72.7123 C.ar      11 UNK        -0.0753 
     14 C14       -77.2030   29.7434  -73.2305 C.ar      11 UNK        -0.0933 
     15 C15       -74.6672   29.6954  -73.1884 C.3       11 UNK         0.0166 
     16 S16       -74.0785   31.0855  -72.1703 S.3       11 UNK        -0.2615 
     17 C17       -72.2873   31.0019  -72.4993 C.3       11 UNK        -0.0865 
     18 CA        -71.8890   31.6426  -73.8646 C.3       10 UNK         0.0862 
     19 C         -71.4046   33.1212  -73.7493 C.2       10 UNK         0.5551 
     20 N         -70.4724   33.5726  -74.5808 N.am      10 UNK        -0.7319 
     21 O         -71.8977   33.8811  -72.9178 O.2       10 UNK        -0.5018 
     22 N         -71.0227   30.7503  -74.6521 N.am      10 UNK        -0.4509 
     23 C         -69.7923   30.3366  -74.3282 C.2       10 UNK         0.4899 
     24 O         -69.1859   30.6979  -73.3182 O.2       10 UNK        -0.4839 
     25 CA        -69.1628   29.3044  -75.2851 C.3       9 UNK         0.0222 
     26 CB        -67.6440   29.1566  -75.0732 C.3       9 UNK        -0.1966 
     27 N         -69.7952   27.9883  -75.1449 N.am      9 UNK        -0.4218 
     28 C         -71.0244   27.6651  -75.5707 C.2       9 UNK         0.5020 
     29 O         -71.7648   28.4487  -76.1716 O.2       9 UNK        -0.5274 
     30 CA        -71.5070   26.2436  -75.2260 C.3       8 UNK         0.0270 
     31 CB        -71.8730   26.1461  -73.7349 C.3       8 UNK        -0.1976 
     32 N         -72.6644   25.8421  -76.0314 N.am      8 UNK        -0.4313 
     33 C         -72.6087   25.5470  -77.3395 C.2       8 UNK         0.5041 
     34 O         -71.5531   25.4910  -77.9738 O.2       8 UNK        -0.5577 
     35 CA        -73.9262   25.2396  -78.0809 C.3       7 UNK         0.0284 
     36 CB        -74.0254   23.7385  -78.4002 C.3       7 UNK        -0.1958 
     37 N         -75.1359   25.6458  -77.3651 N.am      7 UNK        -0.4454 
     38 C         -75.5184   26.9063  -77.1199 C.2       7 UNK         0.5089 
     39 O         -74.9282   27.8987  -77.5448 O.2       7 UNK        -0.5125 
     40 CA        -76.7762   27.0900  -76.2488 C.3       6 UNK         0.0408 
     41 CB        -77.9968   27.2930  -77.1597 C.3       6 UNK        -0.1791 
     42 N         -77.0411   25.9770  -75.3265 N.am      6 UNK        -0.4762 
     43 C         -76.1998   25.5184  -74.3845 C.2       6 UNK         0.5007 
     44 O         -75.0750   25.9802  -74.1936 O.2       6 UNK        -0.5032 
     45 CA        -76.6520   24.2752  -73.5946 C.3       5 UNK         0.0783 
     46 C46       -77.5759   24.6185  -72.3983 C.3       11 UNK        -0.0857 
     47 S47       -76.6102   25.0258  -70.9038 S.3       11 UNK        -0.2512 
     48 C48       -77.4004   26.5588  -70.3164 C.3       11 UNK         0.0225 
     49 N         -77.2730   23.3066  -74.4993 N.am      5 UNK        -0.4615 
     50 C         -76.5939   22.3967  -75.2109 C.2       4 UNK         0.5053 
     51 O         -75.3774   22.2318  -75.1263 O.2       4 UNK        -0.5105 
     52 CA        -77.3986   21.5228  -76.1899 C.3       4 UNK         0.0263 
     53 CB        -77.8083   20.2031  -75.5170 C.3       4 UNK        -0.1981 
     54 N         -78.5925   22.1883  -76.7156 N.am      4 UNK        -0.4224 
     55 C         -78.5726   23.2478  -77.5365 C.2       3 UNK         0.4895 
     56 O         -77.5413   23.7513  -77.9810 O.2       3 UNK        -0.5091 
     57 CA        -79.9330   23.8774  -77.8854 C.3       3 UNK         0.0250 
     58 CB        -80.5250   23.2142  -79.1392 C.3       3 UNK        -0.1996 
     59 N         -80.9176   23.8341  -76.7960 N.am      3 UNK        -0.4254 
     60 C         -80.7470   24.3774  -75.5825 C.2       2 UNK         0.5004 
     61 O         -79.6992   24.9084  -75.2072 O.2       2 UNK        -0.5226 
     62 CA        -81.9176   24.2630  -74.5984 C.3       2 UNK         0.0269 
     63 CB        -81.5939   23.2370  -73.5000 C.3       2 UNK        -0.1926 
     64 N         -82.1747   25.5617  -73.9800 N.am      2 UNK        -0.4687 
     65 C         -82.8792   26.5519  -74.5464 C.2       1 UNK         0.5165 
     66 O         -83.4655   26.4324  -75.6237 O.2       1 UNK        -0.5079 
     67 H67       -81.6383   27.7310  -69.9980 H         1 UNK         0.0900 
     68 H68       -82.4694   26.2048  -69.6907 H         1 UNK         0.0900 
     69 H69       -83.2560   27.7351  -69.2984 H         1 UNK         0.0900 
     70 H70       -81.6006   28.1748  -72.1998 H         1 UNK         0.2959 
     71 H71       -84.0068   28.1788  -73.7888 H         1 UNK         0.1079 
     72 H72       -82.5861   29.1369  -75.5543 H         1 UNK         0.0837 
     73 H73       -82.3832   29.9912  -74.0594 H         1 UNK         0.0837 
     74 H74       -79.5743   30.8402  -73.7683 H         1 UNK         0.0685 
     75 H75       -80.4636   29.9515  -72.5547 H         1 UNK         0.0685 
     76 H76       -79.4583   27.8597  -71.5315 H         1 UNK         0.1434 
     77 H77       -75.1795   27.7536  -71.3634 H         1 UNK         0.1329 
     78 H78       -77.1535   30.5309  -73.9698 H         1 UNK         0.1335 
     79 H79       -73.9508   28.8739  -73.1534 H         1 UNK         0.0680 
     80 H80       -74.7218   30.0057  -74.2332 H         1 UNK         0.0680 
     81 H81       -71.9930   29.9519  -72.4544 H         1 UNK         0.1032 
     82 H82       -71.7539   31.4704  -71.6698 H         1 UNK         0.1032 
     83 H83       -72.7875   31.7154  -74.4783 H         1 UNK         0.0461 
     84 H84       -70.0675   32.9608  -75.2725 H         1 UNK         0.3453 
     85 H85       -70.1683   34.5313  -74.5111 H         1 UNK         0.3453 
     86 H86       -71.4528   30.3197  -75.4656 H         1 UNK         0.2984 
     87 H87       -69.3210   29.6592  -76.3063 H         1 UNK         0.0554 
     88 H88       -67.2037   28.4819  -75.8078 H         1 UNK         0.0847 
     89 H89       -67.4065   28.7726  -74.0798 H         1 UNK         0.0847 
     90 H90       -67.1405   30.1188  -75.1783 H         1 UNK         0.0847 
     91 H91       -69.2691   27.2954  -74.6315 H         1 UNK         0.3141 
     92 H92       -70.6924   25.5456  -75.4307 H         1 UNK         0.0743 
     93 H93       -72.6465   26.8643  -73.4632 H         1 UNK         0.0784 
     94 H94       -72.2391   25.1516  -73.4795 H         1 UNK         0.0784 
     95 H95       -71.0093   26.3444  -73.0996 H         1 UNK         0.0784 
     96 H96       -73.5707   25.9016  -75.5777 H         1 UNK         0.3213 
     97 H97       -73.8985   25.7898  -79.0237 H         1 UNK         0.0855 
     98 H98       -74.0744   23.1367  -77.4919 H         1 UNK         0.0814 
     99 H99       -73.1587   23.4004  -78.9697 H         1 UNK         0.0814 
    100 H100      -74.9100   23.5166  -78.9974 H         1 UNK         0.0814 
    101 H101      -75.7424   24.9041  -77.0389 H         1 UNK         0.3105 
    102 H102      -76.6408   27.9855  -75.6395 H         1 UNK         0.0547 
    103 H103      -77.9355   28.2489  -77.6808 H         1 UNK         0.0837 
    104 H104      -78.0617   26.5147  -77.9197 H         1 UNK         0.0837 
    105 H105      -78.9295   27.2847  -76.5992 H         1 UNK         0.0837 
    106 H106      -77.9663   25.5557  -75.3855 H         1 UNK         0.3020 
    107 H107      -75.7452   23.8146  -73.1943 H         1 UNK         0.1245 
    108 H108      -78.1894   23.7544  -72.1387 H         1 UNK         0.0781 
    109 H109      -78.2814   25.4128  -72.6487 H         1 UNK         0.0781 
    110 H110      -76.9068   26.8797  -69.3982 H         1 UNK         0.0836 
    111 H111      -78.4348   26.3399  -70.0464 H         1 UNK         0.0836 
    112 H112      -78.2603   23.4374  -74.6798 H         1 UNK         0.3022 
    113 H113      -76.7450   21.2895  -77.0333 H         1 UNK         0.0747 
    114 H114      -78.3100   19.5378  -76.2198 H         1 UNK         0.0793 
    115 H115      -76.9342   19.6713  -75.1381 H         1 UNK         0.0793 
    116 H116      -78.4789   20.3700  -74.6732 H         1 UNK         0.0793 
    117 H117      -79.4875   21.8383  -76.4065 H         1 UNK         0.3047 
    118 H118      -79.7554   24.9290  -78.1141 H         1 UNK         0.0822 
    119 H119      -81.4338   23.7204  -79.4652 H         1 UNK         0.0807 
    120 H120      -80.7671   22.1647  -78.9668 H         1 UNK         0.0807 
    121 H121      -79.8199   23.2536  -79.9709 H         1 UNK         0.0807 
    122 H122      -81.8054   23.4044  -77.0144 H         1 UNK         0.2946 
    123 H123      -82.8137   23.9352  -75.1305 H         1 UNK         0.1144 
    124 H124      -82.4212   23.1362  -72.7972 H         1 UNK         0.0793 
    125 H125      -80.7055   23.5165  -72.9320 H         1 UNK         0.0793 
    126 H126      -81.4112   22.2503  -73.9274 H         1 UNK         0.0793 
    127 H127      -81.6862   25.7614  -73.1206 H         1 UNK         0.2896 
@<TRIPOS>BOND
     1    1    2 1    
     2    1   67 1    
     3    1   68 1    
     4    1   69 1    
     5    2    3 2    
     6    2    4 am   BACKBONE|DICT|INTERRES
     7    4    5 1    
     8    4   70 1    
     9    5    6 1    
    10    5   65 1    
    11    5   71 1    
    12    6    7 1    
    13    6   72 1    
    14    6   73 1    
    15    7    8 1    
    16    8    9 1    
    17    8   74 1    
    18    8   75 1    
    19    9   10 ar   
    20    9   14 ar   
    21   10   11 ar   
    22   10   76 1    
    23   11   12 ar   
    24   11   48 1    
    25   12   13 ar   
    26   12   77 1    
    27   13   14 ar   
    28   13   15 1    
    29   14   78 1    
    30   15   16 1    
    31   15   79 1    
    32   15   80 1    
    33   16   17 1    
    34   17   18 1    
    35   17   81 1    
    36   17   82 1    
    37   18   19 1    
    38   18   22 1    
    39   18   83 1    
    40   19   20 am   BACKBONE|DICT|INTERRES
    41   19   21 2    
    42   20   84 1    
    43   20   85 1    
    44   22   23 am   BACKBONE|DICT|INTERRES
    45   22   86 1    
    46   23   24 2    
    47   23   25 1    
    48   25   26 1    
    49   25   27 1    
    50   25   87 1    
    51   26   88 1    
    52   26   89 1    
    53   26   90 1    
    54   27   28 am   BACKBONE|DICT|INTERRES
    55   27   91 1    
    56   28   29 2    
    57   28   30 1    
    58   30   31 1    
    59   30   32 1    
    60   30   92 1    
    61   31   93 1    
    62   31   94 1    
    63   31   95 1    
    64   32   33 am   BACKBONE|DICT|INTERRES
    65   32   96 1    
    66   33   34 2    
    67   33   35 1    
    68   35   36 1    
    69   35   37 1    
    70   35   97 1    
    71   36   98 1    
    72   36   99 1    
    73   36  100 1    
    74   37   38 am   BACKBONE|DICT|INTERRES
    75   37  101 1    
    76   38   39 2    
    77   38   40 1    
    78   40   41 1    
    79   40   42 1    
    80   40  102 1    
    81   41  103 1    
    82   41  104 1    
    83   41  105 1    
    84   42   43 am   BACKBONE|DICT|INTERRES
    85   42  106 1    
    86   43   44 2    
    87   43   45 1    
    88   45   46 1    
    89   45   49 1    
    90   45  107 1    
    91   46   47 1    
    92   46  108 1    
    93   46  109 1    
    94   47   48 1    
    95   48  110 1    
    96   48  111 1    
    97   49   50 am   BACKBONE|DICT|INTERRES
    98   49  112 1    
    99   50   51 2    
   100   50   52 1    
   101   52   53 1    
   102   52   54 1    
   103   52  113 1    
   104   53  114 1    
   105   53  115 1    
   106   53  116 1    
   107   54   55 am   BACKBONE|DICT|INTERRES
   108   54  117 1    
   109   55   56 2    
   110   55   57 1    
   111   57   58 1    
   112   57   59 1    
   113   57  118 1    
   114   58  119 1    
   115   58  120 1    
   116   58  121 1    
   117   59   60 am   BACKBONE|DICT|INTERRES
   118   59  122 1    
   119   60   61 2    
   120   60   62 1    
   121   62   63 1    
   122   62   64 1    
   123   62  123 1    
   124   63  124 1    
   125   63  125 1    
   126   63  126 1    
   127   64   65 am   BACKBONE|DICT|INTERRES
   128   64  127 1    
   129   65   66 2    
@<TRIPOS>SUBSTRUCTURE
     1 UNK         1 GROUP             0       ****    0 ROOT    
