@<TRIPOS>MOLECULE
3R135
127   129    1
SMALL
USER_CHARGES


@<TRIPOS>ATOM
      1 CA        -83.9190   23.6217  -73.7874 C.3       0 UNK        -0.1998 
      2 C         -83.2561   24.9804  -73.9497 C.2       0 UNK         0.4909 
      3 O         -83.1778   25.4969  -75.0649 O.2       0 UNK        -0.5240 
      4 N         -82.7813   25.5689  -72.8439 N.am      1 UNK        -0.4739 
      5 CA        -82.1209   26.8782  -72.8229 C.3       1 UNK         0.0864 
      6 C6        -82.0027   27.4330  -71.3822 C.3       11 UNK        -0.0881 
      7 S7        -81.8859   29.2569  -71.3549 S.3       11 UNK        -0.2682 
      8 C8        -80.5542   29.5544  -70.1482 C.3       11 UNK         0.0289 
      9 C9        -79.1885   29.1435  -70.6790 C.ar      11 UNK        -0.0687 
     10 C10       -78.6234   27.9255  -70.2909 C.ar      11 UNK        -0.0823 
     11 C11       -77.3721   27.5383  -70.7741 C.ar      11 UNK        -0.0830 
     12 C12       -76.6783   28.3861  -71.6418 C.ar      11 UNK        -0.1021 
     13 C13       -77.2236   29.6136  -72.0289 C.ar      11 UNK        -0.0753 
     14 C14       -78.4819   29.9863  -71.5441 C.ar      11 UNK        -0.0933 
     15 C15       -76.4718   30.5185  -72.9969 C.3       11 UNK         0.0166 
     16 S16       -75.4243   31.7416  -72.1431 S.3       11 UNK        -0.2615 
     17 C17       -73.9800   30.7408  -71.6409 C.3       11 UNK        -0.0865 
     18 CA        -72.7262   30.9578  -72.5294 C.3       10 UNK         0.0862 
     19 C         -71.5334   30.1177  -71.9845 C.2       10 UNK         0.5551 
     20 N         -71.1221   29.0417  -72.6470 N.am      10 UNK        -0.7319 
     21 O         -70.9758   30.4510  -70.9419 O.2       10 UNK        -0.5018 
     22 N         -73.0071   30.7304  -73.9563 N.am      10 UNK        -0.4509 
     23 C         -72.2257   31.1496  -74.9575 C.2       10 UNK         0.4899 
     24 O         -71.2311   31.8628  -74.8117 O.2       10 UNK        -0.4839 
     25 CA        -72.6004   30.6478  -76.3620 C.3       9 UNK         0.0222 
     26 CB        -72.5755   31.7889  -77.3940 C.3       9 UNK        -0.1966 
     27 N         -71.6975   29.5779  -76.7949 N.am      9 UNK        -0.4218 
     28 C         -71.6140   28.3708  -76.2214 C.2       9 UNK         0.5020 
     29 O         -72.3035   28.0128  -75.2622 O.2       9 UNK        -0.5274 
     30 CA        -70.5748   27.4021  -76.7916 C.3       8 UNK         0.0270 
     31 CB        -69.2537   27.4935  -76.0049 C.3       8 UNK        -0.1976 
     32 N         -71.1371   26.0594  -76.7010 N.am      8 UNK        -0.4313 
     33 C         -70.7294   24.9788  -77.3780 C.2       8 UNK         0.5041 
     34 O         -69.7548   24.9657  -78.1311 O.2       8 UNK        -0.5577 
     35 CA        -71.5710   23.7013  -77.2082 C.3       7 UNK         0.0284 
     36 CB        -71.1150   22.9088  -75.9725 C.3       7 UNK        -0.1958 
     37 N         -72.9957   24.0147  -77.0881 N.am      7 UNK        -0.4454 
     38 C         -73.7891   24.3791  -78.1008 C.2       7 UNK         0.5089 
     39 O         -73.4376   24.3114  -79.2800 O.2       7 UNK        -0.5125 
     40 CA        -75.1881   24.9449  -77.7533 C.3       6 UNK         0.0408 
     41 CB        -76.1868   24.7590  -78.9105 C.3       6 UNK        -0.1791 
     42 N         -75.8142   24.4631  -76.5114 N.am      6 UNK        -0.4762 
     43 C         -75.4037   24.6811  -75.2527 C.2       6 UNK         0.5007 
     44 O         -74.3180   25.1997  -74.9889 O.2       6 UNK        -0.5032 
     45 CA        -76.3354   24.2679  -74.0885 C.3       5 UNK         0.0783 
     46 C46       -76.3512   25.3615  -72.9952 C.3       11 UNK        -0.0857 
     47 S47       -77.2615   24.8665  -71.4960 S.3       11 UNK        -0.2512 
     48 C48       -76.7732   26.2021  -70.3595 C.3       11 UNK         0.0225 
     49 N         -77.6977   23.9523  -74.5297 N.am      5 UNK        -0.4615 
     50 C         -78.1122   22.7661  -74.9869 C.2       4 UNK         0.5053 
     51 O         -77.3769   21.7892  -75.1241 O.2       4 UNK        -0.5105 
     52 CA        -79.5919   22.6690  -75.3858 C.3       4 UNK         0.0263 
     53 CB        -80.4606   22.3309  -74.1644 C.3       4 UNK        -0.1981 
     54 N         -80.0635   23.9092  -76.0099 N.am      4 UNK        -0.4224 
     55 C         -79.8089   24.2429  -77.2842 C.2       3 UNK         0.4895 
     56 O         -79.2352   23.4991  -78.0797 O.2       3 UNK        -0.5091 
     57 CA        -80.2448   25.6410  -77.7564 C.3       3 UNK         0.0250 
     58 CB        -81.6588   25.5942  -78.3563 C.3       3 UNK        -0.1996 
     59 N         -80.1942   26.6452  -76.6919 N.am      3 UNK        -0.4254 
     60 C         -79.0621   27.1572  -76.1840 C.2       2 UNK         0.5004 
     61 O         -77.9405   26.8834  -76.6052 O.2       2 UNK        -0.5226 
     62 CA        -79.1920   28.1277  -74.9955 C.3       2 UNK         0.0269 
     63 CB        -79.1163   29.5821  -75.4855 C.3       2 UNK        -0.1926 
     64 N         -80.4164   27.9550  -74.2095 N.am      2 UNK        -0.4687 
     65 C         -80.7623   26.8386  -73.5557 C.2       1 UNK         0.5165 
     66 O         -80.0791   25.8100  -73.5531 O.2       1 UNK        -0.5079 
     67 H67       -83.5422   23.0932  -72.9119 H         1 UNK         0.0900 
     68 H68       -83.7337   23.0013  -74.6638 H         1 UNK         0.0900 
     69 H69       -84.9966   23.7419  -73.6809 H         1 UNK         0.0900 
     70 H70       -82.8390   25.0866  -71.9585 H         1 UNK         0.2959 
     71 H71       -82.7767   27.5469  -73.3862 H         1 UNK         0.1079 
     72 H72       -82.8947   27.1751  -70.8088 H         1 UNK         0.0837 
     73 H73       -81.1699   26.9714  -70.8514 H         1 UNK         0.0837 
     74 H74       -80.5390   30.6165  -69.8994 H         1 UNK         0.0685 
     75 H75       -80.7836   29.0296  -69.2194 H         1 UNK         0.0685 
     76 H76       -79.1599   27.2716  -69.6171 H         1 UNK         0.1434 
     77 H77       -75.7178   28.0771  -72.0280 H         1 UNK         0.1329 
     78 H78       -78.9155   30.9304  -71.8446 H         1 UNK         0.1335 
     79 H79       -75.8683   29.9240  -73.6838 H         1 UNK         0.0680 
     80 H80       -77.1849   31.0610  -73.6181 H         1 UNK         0.0680 
     81 H81       -74.2443   29.6854  -71.6160 H         1 UNK         0.1032 
     82 H82       -73.7518   31.0066  -70.6068 H         1 UNK         0.1032 
     83 H83       -72.4347   32.0048  -72.4239 H         1 UNK         0.0461 
     84 H84       -70.3506   28.5053  -72.2845 H         1 UNK         0.3453 
     85 H85       -71.5897   28.7483  -73.4975 H         1 UNK         0.3453 
     86 H86       -73.7654   30.0997  -74.1669 H         1 UNK         0.2984 
     87 H87       -73.6156   30.2455  -76.3344 H         1 UNK         0.0554 
     88 H88       -72.9104   31.4467  -78.3734 H         1 UNK         0.0847 
     89 H89       -71.5768   32.2122  -77.5097 H         1 UNK         0.0847 
     90 H90       -73.2388   32.6004  -77.0918 H         1 UNK         0.0847 
     91 H91       -71.0654   29.8013  -77.5504 H         1 UNK         0.3141 
     92 H92       -70.3979   27.6425  -77.8422 H         1 UNK         0.0743 
     93 H93       -68.8462   28.5047  -76.0401 H         1 UNK         0.0784 
     94 H94       -69.3935   27.2339  -74.9547 H         1 UNK         0.0784 
     95 H95       -68.4962   26.8261  -76.4161 H         1 UNK         0.0784 
     96 H96       -71.9562   26.0018  -76.1049 H         1 UNK         0.3213 
     97 H97       -71.4207   23.0771  -78.0919 H         1 UNK         0.0855 
     98 H98       -70.0569   22.6530  -76.0434 H         1 UNK         0.0814 
     99 H99       -71.6680   21.9744  -75.8754 H         1 UNK         0.0814 
    100 H100      -71.2526   23.4776  -75.0519 H         1 UNK         0.0814 
    101 H101      -73.3583   24.1851  -76.1533 H         1 UNK         0.3105 
    102 H102      -75.0427   26.0196  -77.6277 H         1 UNK         0.0547 
    103 H103      -75.8037   25.1758  -79.8428 H         1 UNK         0.0837 
    104 H104      -76.4066   23.7055  -79.0867 H         1 UNK         0.0837 
    105 H105      -77.1272   25.2688  -78.7048 H         1 UNK         0.0837 
    106 H106      -76.7101   24.0111  -76.6242 H         1 UNK         0.3020 
    107 H107      -75.8924   23.3686  -73.6543 H         1 UNK         0.1245 
    108 H108      -76.8013   26.2719  -73.3928 H         1 UNK         0.0781 
    109 H109      -75.3359   25.6211  -72.6889 H         1 UNK         0.0781 
    110 H110      -75.6851   26.2689  -70.3132 H         1 UNK         0.0836 
    111 H111      -77.1021   25.9440  -69.3517 H         1 UNK         0.0836 
    112 H112      -78.3854   24.6849  -74.3990 H         1 UNK         0.3022 
    113 H113      -79.6899   21.8510  -76.1030 H         1 UNK         0.0747 
    114 H114      -81.4909   22.1379  -74.4589 H         1 UNK         0.0793 
    115 H115      -80.0974   21.4319  -73.6645 H         1 UNK         0.0793 
    116 H116      -80.4613   23.1348  -73.4273 H         1 UNK         0.0793 
    117 H117      -80.5078   24.5881  -75.4040 H         1 UNK         0.3047 
    118 H118      -79.5557   25.9506  -78.5452 H         1 UNK         0.0822 
    119 H119      -81.9564   26.5664  -78.7493 H         1 UNK         0.0807 
    120 H120      -82.4023   25.2870  -77.6202 H         1 UNK         0.0807 
    121 H121      -81.7071   24.8833  -79.1824 H         1 UNK         0.0807 
    122 H122      -81.0750   26.9185  -76.2788 H         1 UNK         0.2946 
    123 H123      -78.3475   27.9413  -74.3287 H         1 UNK         0.1144 
    124 H124      -79.1914   30.2860  -74.6571 H         1 UNK         0.0793 
    125 H125      -79.9156   29.8119  -76.1913 H         1 UNK         0.0793 
    126 H126      -78.1687   29.7736  -75.9910 H         1 UNK         0.0793 
    127 H127      -81.0238   28.7596  -74.1429 H         1 UNK         0.2896 
@<TRIPOS>BOND
     1    1    2 1    
     2    1   67 1    
     3    1   68 1    
     4    1   69 1    
     5    2    3 2    
     6    2    4 am   BACKBONE|DICT|INTERRES
     7    4    5 1    
     8    4   70 1    
     9    5    6 1    
    10    5   65 1    
    11    5   71 1    
    12    6    7 1    
    13    6   72 1    
    14    6   73 1    
    15    7    8 1    
    16    8    9 1    
    17    8   74 1    
    18    8   75 1    
    19    9   10 ar   
    20    9   14 ar   
    21   10   11 ar   
    22   10   76 1    
    23   11   12 ar   
    24   11   48 1    
    25   12   13 ar   
    26   12   77 1    
    27   13   14 ar   
    28   13   15 1    
    29   14   78 1    
    30   15   16 1    
    31   15   79 1    
    32   15   80 1    
    33   16   17 1    
    34   17   18 1    
    35   17   81 1    
    36   17   82 1    
    37   18   19 1    
    38   18   22 1    
    39   18   83 1    
    40   19   20 am   BACKBONE|DICT|INTERRES
    41   19   21 2    
    42   20   84 1    
    43   20   85 1    
    44   22   23 am   BACKBONE|DICT|INTERRES
    45   22   86 1    
    46   23   24 2    
    47   23   25 1    
    48   25   26 1    
    49   25   27 1    
    50   25   87 1    
    51   26   88 1    
    52   26   89 1    
    53   26   90 1    
    54   27   28 am   BACKBONE|DICT|INTERRES
    55   27   91 1    
    56   28   29 2    
    57   28   30 1    
    58   30   31 1    
    59   30   32 1    
    60   30   92 1    
    61   31   93 1    
    62   31   94 1    
    63   31   95 1    
    64   32   33 am   BACKBONE|DICT|INTERRES
    65   32   96 1    
    66   33   34 2    
    67   33   35 1    
    68   35   36 1    
    69   35   37 1    
    70   35   97 1    
    71   36   98 1    
    72   36   99 1    
    73   36  100 1    
    74   37   38 am   BACKBONE|DICT|INTERRES
    75   37  101 1    
    76   38   39 2    
    77   38   40 1    
    78   40   41 1    
    79   40   42 1    
    80   40  102 1    
    81   41  103 1    
    82   41  104 1    
    83   41  105 1    
    84   42   43 am   BACKBONE|DICT|INTERRES
    85   42  106 1    
    86   43   44 2    
    87   43   45 1    
    88   45   46 1    
    89   45   49 1    
    90   45  107 1    
    91   46   47 1    
    92   46  108 1    
    93   46  109 1    
    94   47   48 1    
    95   48  110 1    
    96   48  111 1    
    97   49   50 am   BACKBONE|DICT|INTERRES
    98   49  112 1    
    99   50   51 2    
   100   50   52 1    
   101   52   53 1    
   102   52   54 1    
   103   52  113 1    
   104   53  114 1    
   105   53  115 1    
   106   53  116 1    
   107   54   55 am   BACKBONE|DICT|INTERRES
   108   54  117 1    
   109   55   56 2    
   110   55   57 1    
   111   57   58 1    
   112   57   59 1    
   113   57  118 1    
   114   58  119 1    
   115   58  120 1    
   116   58  121 1    
   117   59   60 am   BACKBONE|DICT|INTERRES
   118   59  122 1    
   119   60   61 2    
   120   60   62 1    
   121   62   63 1    
   122   62   64 1    
   123   62  123 1    
   124   63  124 1    
   125   63  125 1    
   126   63  126 1    
   127   64   65 am   BACKBONE|DICT|INTERRES
   128   64  127 1    
   129   65   66 2    
@<TRIPOS>SUBSTRUCTURE
     1 UNK         1 GROUP             0       ****    0 ROOT    
