@<TRIPOS>MOLECULE
3R135
127   129    1
SMALL
USER_CHARGES


@<TRIPOS>ATOM
      1 CA        -84.7723   30.8867  -74.4312 C.3       0 UNK        -0.1998 
      2 C         -83.3749   30.3235  -74.6431 C.2       0 UNK         0.4909 
      3 O         -82.5114   31.0139  -75.1857 O.2       0 UNK        -0.5240 
      4 N         -83.1481   29.0757  -74.2242 N.am      1 UNK        -0.4739 
      5 CA        -81.8783   28.3591  -74.3368 C.3       1 UNK         0.0864 
      6 C6        -80.8176   28.8179  -73.2951 C.3       11 UNK        -0.0881 
      7 S7        -81.4013   28.8530  -71.5619 S.3       11 UNK        -0.2682 
      8 C8        -80.1906   29.9884  -70.7920 C.3       11 UNK         0.0289 
      9 C9        -78.7558   29.4798  -70.8935 C.ar      11 UNK        -0.0687 
     10 C10       -78.4508   28.1665  -70.5244 C.ar      11 UNK        -0.0823 
     11 C11       -77.1661   27.6555  -70.7148 C.ar      11 UNK        -0.0830 
     12 C12       -76.1604   28.4868  -71.2123 C.ar      11 UNK        -0.1021 
     13 C13       -76.4365   29.8165  -71.5418 C.ar      11 UNK        -0.0753 
     14 C14       -77.7386   30.3074  -71.3863 C.ar      11 UNK        -0.0933 
     15 C15       -75.3273   30.6934  -72.1062 C.3       11 UNK         0.0166 
     16 S16       -73.9991   30.9298  -70.8855 S.3       11 UNK        -0.2615 
     17 C17       -72.6704   31.6635  -71.9043 C.3       11 UNK        -0.0865 
     18 CA        -71.6441   30.6514  -72.4984 C.3       10 UNK         0.0862 
     19 C         -71.0253   29.6697  -71.4662 C.2       10 UNK         0.5551 
     20 N         -70.3002   30.1820  -70.4812 N.am      10 UNK        -0.7319 
     21 O         -71.1943   28.4535  -71.5479 O.2       10 UNK        -0.5018 
     22 N         -72.1724   29.9318  -73.6622 N.am      10 UNK        -0.4509 
     23 C         -72.2154   30.4115  -74.9096 C.2       10 UNK         0.4899 
     24 O         -71.8895   31.5637  -75.2010 O.2       10 UNK        -0.4839 
     25 CA        -72.7177   29.4641  -76.0185 C.3       9 UNK         0.0222 
     26 CB        -72.1115   29.7964  -77.3986 C.3       9 UNK        -0.1966 
     27 N         -72.5657   28.0352  -75.7168 N.am      9 UNK        -0.4218 
     28 C         -71.4321   27.3429  -75.5265 C.2       9 UNK         0.5020 
     29 O         -70.3055   27.8407  -75.5247 O.2       9 UNK        -0.5274 
     30 CA        -71.5875   25.8254  -75.3158 C.3       8 UNK         0.0270 
     31 CB        -72.0377   25.5147  -73.8784 C.3       8 UNK        -0.1976 
     32 N         -72.5194   25.2162  -76.2710 N.am      8 UNK        -0.4313 
     33 C         -72.2926   25.1035  -77.5888 C.2       8 UNK         0.5041 
     34 O         -71.2325   25.4185  -78.1314 O.2       8 UNK        -0.5577 
     35 CA        -73.4457   24.5664  -78.4564 C.3       7 UNK         0.0284 
     36 CB        -73.4938   23.0302  -78.4284 C.3       7 UNK        -0.1958 
     37 N         -74.7446   25.1170  -78.0623 N.am      7 UNK        -0.4454 
     38 C         -75.0974   26.4014  -78.2227 C.2       7 UNK         0.5089 
     39 O         -74.4080   27.2340  -78.8109 O.2       7 UNK        -0.5125 
     40 CA        -76.4327   26.8435  -77.6012 C.3       6 UNK         0.0408 
     41 CB        -77.5880   26.6322  -78.5917 C.3       6 UNK        -0.1791 
     42 N         -76.7324   26.1548  -76.3445 N.am      6 UNK        -0.4762 
     43 C         -76.0265   26.2809  -75.2124 C.2       6 UNK         0.5007 
     44 O         -75.0658   27.0384  -75.0906 O.2       6 UNK        -0.5032 
     45 CA        -76.4219   25.3758  -74.0319 C.3       5 UNK         0.0783 
     46 C46       -77.6212   25.9599  -73.2612 C.3       11 UNK        -0.0857 
     47 S47       -77.8652   25.1347  -71.6465 S.3       11 UNK        -0.2512 
     48 C48       -76.8956   26.1754  -70.4983 C.3       11 UNK         0.0225 
     49 N         -76.6805   24.0048  -74.4672 N.am      5 UNK        -0.4615 
     50 C         -75.7613   23.1727  -74.9668 C.2       4 UNK         0.5053 
     51 O         -74.5707   23.4606  -75.0862 O.2       4 UNK        -0.5105 
     52 CA        -76.2740   21.8052  -75.4469 C.3       4 UNK         0.0263 
     53 CB        -76.3006   20.8013  -74.2838 C.3       4 UNK        -0.1981 
     54 N         -77.6064   21.8886  -76.0569 N.am      4 UNK        -0.4224 
     55 C         -77.8600   22.5059  -77.2199 C.2       3 UNK         0.4895 
     56 O         -76.9941   23.0427  -77.9121 O.2       3 UNK        -0.5091 
     57 CA        -79.3333   22.5688  -77.6623 C.3       3 UNK         0.0250 
     58 CB        -79.8016   21.2069  -78.2010 C.3       3 UNK        -0.1996 
     59 N         -80.2550   23.0347  -76.6154 N.am      3 UNK        -0.4254 
     60 C         -80.1826   24.2372  -76.0285 C.2       2 UNK         0.5004 
     61 O         -79.2803   25.0469  -76.2512 O.2       2 UNK        -0.5226 
     62 CA        -81.2788   24.6089  -75.0201 C.3       2 UNK         0.0269 
     63 CB        -81.0949   23.8554  -73.6894 C.3       2 UNK        -0.1926 
     64 N         -81.2056   26.0552  -74.8092 N.am      2 UNK        -0.4687 
     65 C         -82.1608   26.8440  -74.3072 C.2       1 UNK         0.5165 
     66 O         -83.2357   26.4240  -73.8674 O.2       1 UNK        -0.5079 
     67 H67       -84.7256   31.7804  -73.8094 H         1 UNK         0.0900 
     68 H68       -85.4308   30.1684  -73.9430 H         1 UNK         0.0900 
     69 H69       -85.2167   31.1592  -75.3881 H         1 UNK         0.0900 
     70 H70       -83.8886   28.5196  -73.8138 H         1 UNK         0.2959 
     71 H71       -81.4784   28.5659  -75.3325 H         1 UNK         0.1079 
     72 H72       -80.4823   29.8231  -73.5554 H         1 UNK         0.0837 
     73 H73       -79.9245   28.1928  -73.3490 H         1 UNK         0.0837 
     74 H74       -80.2881   30.9715  -71.2552 H         1 UNK         0.0685 
     75 H75       -80.4455   30.1147  -69.7391 H         1 UNK         0.0685 
     76 H76       -79.2334   27.5151  -70.1596 H         1 UNK         0.1434 
     77 H77       -75.1646   28.0956  -71.3726 H         1 UNK         0.1329 
     78 H78       -77.9641   31.3272  -71.6671 H         1 UNK         0.1335 
     79 H79       -75.7122   31.6673  -72.4122 H         1 UNK         0.0680 
     80 H80       -74.9244   30.2186  -73.0017 H         1 UNK         0.0680 
     81 H81       -73.1125   32.2672  -72.6983 H         1 UNK         0.1032 
     82 H82       -72.1412   32.3774  -71.2715 H         1 UNK         0.1032 
     83 H83       -70.7935   31.2329  -72.8605 H         1 UNK         0.0461 
     84 H84       -70.1535   31.1759  -70.4010 H         1 UNK         0.3453 
     85 H85       -69.8930   29.5599  -69.8007 H         1 UNK         0.3453 
     86 H86       -72.4053   28.9630  -73.4906 H         1 UNK         0.2984 
     87 H87       -73.7933   29.6327  -76.0865 H         1 UNK         0.0554 
     88 H88       -72.4904   29.1257  -78.1697 H         1 UNK         0.0847 
     89 H89       -71.0240   29.7178  -77.3915 H         1 UNK         0.0847 
     90 H90       -72.3624   30.8126  -77.7049 H         1 UNK         0.0847 
     91 H91       -73.4480   27.5324  -75.6154 H         1 UNK         0.3141 
     92 H92       -70.6077   25.3676  -75.4680 H         1 UNK         0.0743 
     93 H93       -73.0230   25.9268  -73.6608 H         1 UNK         0.0784 
     94 H94       -72.0800   24.4398  -73.7007 H         1 UNK         0.0784 
     95 H95       -71.3414   25.9372  -73.1523 H         1 UNK         0.0784 
     96 H96       -73.3895   24.8488  -75.8965 H         1 UNK         0.3213 
     97 H97       -73.2541   24.8753  -79.4865 H         1 UNK         0.0855 
     98 H98       -73.6599   22.6446  -77.4231 H         1 UNK         0.0814 
     99 H99       -72.5546   22.6068  -78.7864 H         1 UNK         0.0814 
    100 H100      -74.2882   22.6463  -79.0688 H         1 UNK         0.0814 
    101 H101      -75.4105   24.4823  -77.6359 H         1 UNK         0.3105 
    102 H102      -76.3600   27.9116  -77.3860 H         1 UNK         0.0547 
    103 H103      -77.7339   25.5762  -78.8217 H         1 UNK         0.0837 
    104 H104      -78.5263   27.0188  -78.1939 H         1 UNK         0.0837 
    105 H105      -77.3964   27.1494  -79.5328 H         1 UNK         0.0837 
    106 H106      -77.5569   25.5552  -76.3439 H         1 UNK         0.3020 
    107 H107      -75.5616   25.3532  -73.3588 H         1 UNK         0.1245 
    108 H108      -77.5183   27.0368  -73.1381 H         1 UNK         0.0781 
    109 H109      -78.5374   25.8384  -73.8368 H         1 UNK         0.0781 
    110 H110      -77.1446   25.9056  -69.4711 H         1 UNK         0.0836 
    111 H111      -75.8358   25.9507  -70.6282 H         1 UNK         0.0836 
    112 H112      -77.6379   23.6934  -74.4177 H         1 UNK         0.3022 
    113 H113      -75.5766   21.4361  -76.2020 H         1 UNK         0.0747 
    114 H114      -76.5926   19.8075  -74.6240 H         1 UNK         0.0793 
    115 H115      -75.3138   20.7086  -73.8278 H         1 UNK         0.0793 
    116 H116      -76.9945   21.1062  -73.4993 H         1 UNK         0.0793 
    117 H117      -78.3745   21.4710  -75.5518 H         1 UNK         0.3047 
    118 H118      -79.3878   23.2883  -78.4824 H         1 UNK         0.0822 
    119 H119      -80.7991   21.2746  -78.6357 H         1 UNK         0.0807 
    120 H120      -79.8271   20.4459  -77.4202 H         1 UNK         0.0807 
    121 H121      -79.1338   20.8470  -78.9853 H         1 UNK         0.0807 
    122 H122      -81.0186   22.4182  -76.3758 H         1 UNK         0.2946 
    123 H123      -82.2495   24.3623  -75.4563 H         1 UNK         0.1144 
    124 H124      -81.8610   24.1319  -72.9650 H         1 UNK         0.0793 
    125 H125      -80.1247   24.0601  -73.2390 H         1 UNK         0.0793 
    126 H126      -81.1662   22.7769  -73.8335 H         1 UNK         0.0793 
    127 H127      -80.3664   26.4638  -75.2042 H         1 UNK         0.2896 
@<TRIPOS>BOND
     1    1    2 1    
     2    1   67 1    
     3    1   68 1    
     4    1   69 1    
     5    2    3 2    
     6    2    4 am   BACKBONE|DICT|INTERRES
     7    4    5 1    
     8    4   70 1    
     9    5    6 1    
    10    5   65 1    
    11    5   71 1    
    12    6    7 1    
    13    6   72 1    
    14    6   73 1    
    15    7    8 1    
    16    8    9 1    
    17    8   74 1    
    18    8   75 1    
    19    9   10 ar   
    20    9   14 ar   
    21   10   11 ar   
    22   10   76 1    
    23   11   12 ar   
    24   11   48 1    
    25   12   13 ar   
    26   12   77 1    
    27   13   14 ar   
    28   13   15 1    
    29   14   78 1    
    30   15   16 1    
    31   15   79 1    
    32   15   80 1    
    33   16   17 1    
    34   17   18 1    
    35   17   81 1    
    36   17   82 1    
    37   18   19 1    
    38   18   22 1    
    39   18   83 1    
    40   19   20 am   BACKBONE|DICT|INTERRES
    41   19   21 2    
    42   20   84 1    
    43   20   85 1    
    44   22   23 am   BACKBONE|DICT|INTERRES
    45   22   86 1    
    46   23   24 2    
    47   23   25 1    
    48   25   26 1    
    49   25   27 1    
    50   25   87 1    
    51   26   88 1    
    52   26   89 1    
    53   26   90 1    
    54   27   28 am   BACKBONE|DICT|INTERRES
    55   27   91 1    
    56   28   29 2    
    57   28   30 1    
    58   30   31 1    
    59   30   32 1    
    60   30   92 1    
    61   31   93 1    
    62   31   94 1    
    63   31   95 1    
    64   32   33 am   BACKBONE|DICT|INTERRES
    65   32   96 1    
    66   33   34 2    
    67   33   35 1    
    68   35   36 1    
    69   35   37 1    
    70   35   97 1    
    71   36   98 1    
    72   36   99 1    
    73   36  100 1    
    74   37   38 am   BACKBONE|DICT|INTERRES
    75   37  101 1    
    76   38   39 2    
    77   38   40 1    
    78   40   41 1    
    79   40   42 1    
    80   40  102 1    
    81   41  103 1    
    82   41  104 1    
    83   41  105 1    
    84   42   43 am   BACKBONE|DICT|INTERRES
    85   42  106 1    
    86   43   44 2    
    87   43   45 1    
    88   45   46 1    
    89   45   49 1    
    90   45  107 1    
    91   46   47 1    
    92   46  108 1    
    93   46  109 1    
    94   47   48 1    
    95   48  110 1    
    96   48  111 1    
    97   49   50 am   BACKBONE|DICT|INTERRES
    98   49  112 1    
    99   50   51 2    
   100   50   52 1    
   101   52   53 1    
   102   52   54 1    
   103   52  113 1    
   104   53  114 1    
   105   53  115 1    
   106   53  116 1    
   107   54   55 am   BACKBONE|DICT|INTERRES
   108   54  117 1    
   109   55   56 2    
   110   55   57 1    
   111   57   58 1    
   112   57   59 1    
   113   57  118 1    
   114   58  119 1    
   115   58  120 1    
   116   58  121 1    
   117   59   60 am   BACKBONE|DICT|INTERRES
   118   59  122 1    
   119   60   61 2    
   120   60   62 1    
   121   62   63 1    
   122   62   64 1    
   123   62  123 1    
   124   63  124 1    
   125   63  125 1    
   126   63  126 1    
   127   64   65 am   BACKBONE|DICT|INTERRES
   128   64  127 1    
   129   65   66 2    
@<TRIPOS>SUBSTRUCTURE
     1 UNK         1 GROUP             0       ****    0 ROOT    
