@<TRIPOS>MOLECULE
3R135
127   129    1
SMALL
USER_CHARGES


@<TRIPOS>ATOM
      1 CA        -85.0271   28.0490  -70.9845 C.3       0 UNK        -0.1998 
      2 C         -84.7990   27.6258  -72.4276 C.2       0 UNK         0.4909 
      3 O         -85.4863   26.7303  -72.9195 O.2       0 UNK        -0.5240 
      4 N         -83.8406   28.2656  -73.1102 N.am      1 UNK        -0.4739 
      5 CA        -83.4479   27.9738  -74.4956 C.3       1 UNK         0.0864 
      6 C6        -82.6216   29.1264  -75.1252 C.3       11 UNK        -0.0881 
      7 S7        -81.2665   29.7415  -74.0649 S.3       11 UNK        -0.2682 
      8 C8        -79.8324   28.9408  -74.8355 C.3       11 UNK         0.0289 
      9 C9        -78.5950   29.1093  -73.9725 C.ar      11 UNK        -0.0687 
     10 C10       -78.3620   28.2274  -72.9154 C.ar      11 UNK        -0.0823 
     11 C11       -77.2233   28.3610  -72.1172 C.ar      11 UNK        -0.0830 
     12 C12       -76.3113   29.3849  -72.3888 C.ar      11 UNK        -0.1021 
     13 C13       -76.5250   30.2660  -73.4548 C.ar      11 UNK        -0.0753 
     14 C14       -77.6767   30.1295  -74.2361 C.ar      11 UNK        -0.0933 
     15 C15       -75.5287   31.3768  -73.7574 C.3       11 UNK         0.0166 
     16 S16       -73.9352   30.7244  -74.3535 S.3       11 UNK        -0.2615 
     17 C17       -72.9146   30.9277  -72.8551 C.3       11 UNK        -0.0865 
     18 CA        -71.5453   30.2045  -72.9229 C.3       10 UNK         0.0862 
     19 C         -70.7084   30.5580  -71.6565 C.2       10 UNK         0.5551 
     20 N         -70.5312   29.6515  -70.7027 N.am      10 UNK        -0.7319 
     21 O         -70.2177   31.6782  -71.5397 O.2       10 UNK        -0.5018 
     22 N         -71.6975   28.7644  -73.2002 N.am      10 UNK        -0.4509 
     23 C         -70.6882   27.9195  -73.4538 C.2       10 UNK         0.4899 
     24 O         -69.5047   28.2543  -73.5101 O.2       10 UNK        -0.4839 
     25 CA        -71.0640   26.4527  -73.6998 C.3       9 UNK         0.0222 
     26 CB        -72.0712   25.9135  -72.6678 C.3       9 UNK        -0.1966 
     27 N         -71.5850   26.3099  -75.0598 N.am      9 UNK        -0.4218 
     28 C         -70.8082   26.0564  -76.1248 C.2       9 UNK         0.5020 
     29 O         -69.6052   25.7989  -76.0490 O.2       9 UNK        -0.5274 
     30 CA        -71.4555   26.0981  -77.5192 C.3       8 UNK         0.0270 
     31 CB        -71.9519   24.7075  -77.9422 C.3       8 UNK        -0.1976 
     32 N         -72.5503   27.0584  -77.6381 N.am      8 UNK        -0.4313 
     33 C         -72.4259   28.3896  -77.6143 C.2       8 UNK         0.5041 
     34 O         -71.3511   28.9697  -77.4571 O.2       8 UNK        -0.5577 
     35 CA        -73.7030   29.2264  -77.8208 C.3       7 UNK         0.0284 
     36 CB        -73.9414   29.5032  -79.3180 C.3       7 UNK        -0.1958 
     37 N         -74.9140   28.6932  -77.1783 N.am      7 UNK        -0.4454 
     38 C         -75.5843   27.5607  -77.4340 C.2       7 UNK         0.5089 
     39 O         -75.2541   26.7299  -78.2827 O.2       7 UNK        -0.5125 
     40 CA        -76.8191   27.3001  -76.5577 C.3       6 UNK         0.0408 
     41 CB        -78.0300   26.9283  -77.4312 C.3       6 UNK        -0.1791 
     42 N         -76.6280   26.2603  -75.5410 N.am      6 UNK        -0.4762 
     43 C         -75.5682   26.0785  -74.7325 C.2       6 UNK         0.5007 
     44 O         -74.5482   26.7710  -74.7444 O.2       6 UNK        -0.5032 
     45 CA        -75.6430   24.8610  -73.7869 C.3       5 UNK         0.0783 
     46 C46       -76.5269   25.1169  -72.5426 C.3       11 UNK        -0.0857 
     47 S47       -75.7039   26.1754  -71.3063 S.3       11 UNK        -0.2512 
     48 C48       -76.9885   27.4153  -70.9483 C.3       11 UNK         0.0225 
     49 N         -76.0934   23.6821  -74.5254 N.am      5 UNK        -0.4615 
     50 C         -75.3452   22.9919  -75.3936 C.2       4 UNK         0.5053 
     51 O         -74.1334   23.1586  -75.5195 O.2       4 UNK        -0.5105 
     52 CA        -76.0548   21.9732  -76.3080 C.3       4 UNK         0.0263 
     53 CB        -75.9264   20.5389  -75.7570 C.3       4 UNK        -0.1981 
     54 N         -77.4495   22.3200  -76.6342 N.am      4 UNK        -0.4224 
     55 C         -78.5126   22.3335  -75.8188 C.2       3 UNK         0.4895 
     56 O         -78.4827   21.9664  -74.6419 O.2       3 UNK        -0.5091 
     57 CA        -79.8172   22.8883  -76.4145 C.3       3 UNK         0.0250 
     58 CB        -80.5778   21.7854  -77.1684 C.3       3 UNK        -0.1996 
     59 N         -80.6897   23.4496  -75.3807 N.am      3 UNK        -0.4254 
     60 C         -80.4054   24.5214  -74.6278 C.2       2 UNK         0.5004 
     61 O         -79.3958   25.2178  -74.7662 O.2       2 UNK        -0.5226 
     62 CA        -81.4073   24.8388  -73.5027 C.3       2 UNK         0.0269 
     63 CB        -80.7372   24.7006  -72.1251 C.3       2 UNK        -0.1926 
     64 N         -82.0202   26.1654  -73.6158 N.am      2 UNK        -0.4687 
     65 C         -82.7568   26.6002  -74.6506 C.2       1 UNK         0.5165 
     66 O         -82.9453   25.9494  -75.6795 O.2       1 UNK        -0.5079 
     67 H67       -84.8640   27.2043  -70.3157 H         1 UNK         0.0900 
     68 H68       -86.0517   28.3957  -70.8527 H         1 UNK         0.0900 
     69 H69       -84.3558   28.8536  -70.6846 H         1 UNK         0.0900 
     70 H70       -83.3066   28.9977  -72.6617 H         1 UNK         0.2959 
     71 H71       -84.3723   27.8983  -75.0734 H         1 UNK         0.1079 
     72 H72       -82.2359   28.8464  -76.1078 H         1 UNK         0.0837 
     73 H73       -83.2853   29.9722  -75.3110 H         1 UNK         0.0837 
     74 H74       -80.0365   27.8791  -74.9743 H         1 UNK         0.0685 
     75 H75       -79.6694   29.3597  -75.8297 H         1 UNK         0.0685 
     76 H76       -79.0744   27.4396  -72.7185 H         1 UNK         0.1434 
     77 H77       -75.4316   29.4861  -71.7708 H         1 UNK         0.1329 
     78 H78       -77.8574   30.8112  -75.0559 H         1 UNK         0.1335 
     79 H79       -75.9267   32.0479  -74.5201 H         1 UNK         0.0680 
     80 H80       -75.3837   31.9897  -72.8666 H         1 UNK         0.0680 
     81 H81       -73.4748   30.5796  -71.9868 H         1 UNK         0.1032 
     82 H82       -72.7676   31.9998  -72.7068 H         1 UNK         0.1032 
     83 H83       -70.9980   30.6213  -73.7707 H         1 UNK         0.0461 
     84 H84       -69.9873   29.8900  -69.8885 H         1 UNK         0.3453 
     85 H85       -70.9305   28.7316  -70.7926 H         1 UNK         0.3453 
     86 H86       -72.6449   28.4152  -73.2176 H         1 UNK         0.2984 
     87 H87       -70.1552   25.8572  -73.5886 H         1 UNK         0.0554 
     88 H88       -72.2780   24.8574  -72.8397 H         1 UNK         0.0847 
     89 H89       -73.0199   26.4472  -72.6866 H         1 UNK         0.0847 
     90 H90       -71.6732   26.0008  -71.6561 H         1 UNK         0.0847 
     91 H91       -72.5680   26.5258  -75.1994 H         1 UNK         0.3141 
     92 H92       -70.6773   26.4016  -78.2228 H         1 UNK         0.0743 
     93 H93       -72.7967   24.3841  -77.3359 H         1 UNK         0.0784 
     94 H94       -72.2688   24.7008  -78.9852 H         1 UNK         0.0784 
     95 H95       -71.1654   23.9589  -77.8368 H         1 UNK         0.0784 
     96 H96       -73.4828   26.6887  -77.8130 H         1 UNK         0.3213 
     97 H97       -73.5177   30.1880  -77.3396 H         1 UNK         0.0855 
     98 H98       -73.0729   29.9882  -79.7657 H         1 UNK         0.0814 
     99 H99       -74.7946   30.1647  -79.4682 H         1 UNK         0.0814 
    100 H100      -74.1238   28.5866  -79.8798 H         1 UNK         0.0814 
    101 H101      -75.2306   29.2360  -76.3855 H         1 UNK         0.3105 
    102 H102      -77.0568   28.2227  -76.0342 H         1 UNK         0.0547 
    103 H103      -78.2062   27.6839  -78.1979 H         1 UNK         0.0837 
    104 H104      -77.8804   25.9757  -77.9407 H         1 UNK         0.0837 
    105 H105      -78.9428   26.8490  -76.8429 H         1 UNK         0.0837 
    106 H106      -77.4307   25.6587  -75.3920 H         1 UNK         0.3020 
    107 H107      -74.6282   24.6545  -73.4420 H         1 UNK         0.1245 
    108 H108      -76.7461   24.1710  -72.0445 H         1 UNK         0.0781 
    109 H109      -77.4958   25.5287  -72.8259 H         1 UNK         0.0781 
    110 H110      -76.6825   27.9940  -70.0756 H         1 UNK         0.0836 
    111 H111      -77.9122   26.9081  -70.6650 H         1 UNK         0.0836 
    112 H112      -77.0707   23.4271  -74.4391 H         1 UNK         0.3022 
    113 H113      -75.5220   22.0011  -77.2600 H         1 UNK         0.0747 
    114 H114      -76.3980   19.8145  -76.4209 H         1 UNK         0.0793 
    115 H115      -74.8775   20.2556  -75.6605 H         1 UNK         0.0793 
    116 H116      -76.3775   20.4348  -74.7700 H         1 UNK         0.0793 
    117 H117      -77.5856   22.6527  -77.5794 H         1 UNK         0.3047 
    118 H118      -79.5696   23.6910  -77.1127 H         1 UNK         0.0822 
    119 H119      -81.4900   22.1720  -77.6237 H         1 UNK         0.0807 
    120 H120      -80.8544   20.9624  -76.5078 H         1 UNK         0.0807 
    121 H121      -79.9702   21.3668  -77.9719 H         1 UNK         0.0807 
    122 H122      -81.5309   22.9289  -75.1814 H         1 UNK         0.2946 
    123 H123      -82.2204   24.1110  -73.5488 H         1 UNK         0.1144 
    124 H124      -80.2919   23.7115  -72.0074 H         1 UNK         0.0793 
    125 H125      -81.4575   24.8284  -71.3169 H         1 UNK         0.0793 
    126 H126      -79.9408   25.4304  -71.9842 H         1 UNK         0.0793 
    127 H127      -81.9204   26.7810  -72.8224 H         1 UNK         0.2896 
@<TRIPOS>BOND
     1    1    2 1    
     2    1   67 1    
     3    1   68 1    
     4    1   69 1    
     5    2    3 2    
     6    2    4 am   BACKBONE|DICT|INTERRES
     7    4    5 1    
     8    4   70 1    
     9    5    6 1    
    10    5   65 1    
    11    5   71 1    
    12    6    7 1    
    13    6   72 1    
    14    6   73 1    
    15    7    8 1    
    16    8    9 1    
    17    8   74 1    
    18    8   75 1    
    19    9   10 ar   
    20    9   14 ar   
    21   10   11 ar   
    22   10   76 1    
    23   11   12 ar   
    24   11   48 1    
    25   12   13 ar   
    26   12   77 1    
    27   13   14 ar   
    28   13   15 1    
    29   14   78 1    
    30   15   16 1    
    31   15   79 1    
    32   15   80 1    
    33   16   17 1    
    34   17   18 1    
    35   17   81 1    
    36   17   82 1    
    37   18   19 1    
    38   18   22 1    
    39   18   83 1    
    40   19   20 am   BACKBONE|DICT|INTERRES
    41   19   21 2    
    42   20   84 1    
    43   20   85 1    
    44   22   23 am   BACKBONE|DICT|INTERRES
    45   22   86 1    
    46   23   24 2    
    47   23   25 1    
    48   25   26 1    
    49   25   27 1    
    50   25   87 1    
    51   26   88 1    
    52   26   89 1    
    53   26   90 1    
    54   27   28 am   BACKBONE|DICT|INTERRES
    55   27   91 1    
    56   28   29 2    
    57   28   30 1    
    58   30   31 1    
    59   30   32 1    
    60   30   92 1    
    61   31   93 1    
    62   31   94 1    
    63   31   95 1    
    64   32   33 am   BACKBONE|DICT|INTERRES
    65   32   96 1    
    66   33   34 2    
    67   33   35 1    
    68   35   36 1    
    69   35   37 1    
    70   35   97 1    
    71   36   98 1    
    72   36   99 1    
    73   36  100 1    
    74   37   38 am   BACKBONE|DICT|INTERRES
    75   37  101 1    
    76   38   39 2    
    77   38   40 1    
    78   40   41 1    
    79   40   42 1    
    80   40  102 1    
    81   41  103 1    
    82   41  104 1    
    83   41  105 1    
    84   42   43 am   BACKBONE|DICT|INTERRES
    85   42  106 1    
    86   43   44 2    
    87   43   45 1    
    88   45   46 1    
    89   45   49 1    
    90   45  107 1    
    91   46   47 1    
    92   46  108 1    
    93   46  109 1    
    94   47   48 1    
    95   48  110 1    
    96   48  111 1    
    97   49   50 am   BACKBONE|DICT|INTERRES
    98   49  112 1    
    99   50   51 2    
   100   50   52 1    
   101   52   53 1    
   102   52   54 1    
   103   52  113 1    
   104   53  114 1    
   105   53  115 1    
   106   53  116 1    
   107   54   55 am   BACKBONE|DICT|INTERRES
   108   54  117 1    
   109   55   56 2    
   110   55   57 1    
   111   57   58 1    
   112   57   59 1    
   113   57  118 1    
   114   58  119 1    
   115   58  120 1    
   116   58  121 1    
   117   59   60 am   BACKBONE|DICT|INTERRES
   118   59  122 1    
   119   60   61 2    
   120   60   62 1    
   121   62   63 1    
   122   62   64 1    
   123   62  123 1    
   124   63  124 1    
   125   63  125 1    
   126   63  126 1    
   127   64   65 am   BACKBONE|DICT|INTERRES
   128   64  127 1    
   129   65   66 2    
@<TRIPOS>SUBSTRUCTURE
     1 UNK         1 GROUP             0       ****    0 ROOT    
