@<TRIPOS>MOLECULE
3R135
127   129    1
SMALL
USER_CHARGES


@<TRIPOS>ATOM
      1 CA        -80.6805   22.4534  -70.7450 C.3       0 UNK        -0.1998 
      2 C         -80.3040   23.6209  -71.6429 C.2       0 UNK         0.4909 
      3 O         -79.4212   23.4773  -72.4906 O.2       0 UNK        -0.5240 
      4 N         -80.9795   24.7694  -71.4793 N.am      1 UNK        -0.4739 
      5 CA        -80.7417   26.0313  -72.2026 C.3       1 UNK         0.0864 
      6 C6        -79.3979   26.6980  -71.8092 C.3       11 UNK        -0.0881 
      7 S7        -79.3081   27.1893  -70.0551 S.3       11 UNK        -0.2682 
      8 C8        -79.8841   28.9194  -70.1056 C.3       11 UNK         0.0289 
      9 C9        -79.0372   29.7972  -71.0187 C.ar      11 UNK        -0.0687 
     10 C10       -79.5476   30.2253  -72.2484 C.ar      11 UNK        -0.0823 
     11 C11       -78.7756   31.0173  -73.1028 C.ar      11 UNK        -0.0830 
     12 C12       -77.4935   31.4053  -72.7050 C.ar      11 UNK        -0.1021 
     13 C13       -76.9673   30.9790  -71.4807 C.ar      11 UNK        -0.0753 
     14 C14       -77.7458   30.1767  -70.6401 C.ar      11 UNK        -0.0933 
     15 C15       -75.5633   31.3962  -71.0628 C.3       11 UNK         0.0166 
     16 S16       -74.3003   30.8679  -72.2642 S.3       11 UNK        -0.2615 
     17 C17       -74.3135   29.0504  -72.0691 C.3       11 UNK        -0.0865 
     18 CA        -72.8892   28.4652  -71.8733 C.3       10 UNK         0.0862 
     19 C         -72.9570   26.9256  -71.6494 C.2       10 UNK         0.5551 
     20 N         -72.5213   26.0919  -72.5881 N.am      10 UNK        -0.7319 
     21 O         -73.4080   26.4841  -70.5959 O.2       10 UNK        -0.5018 
     22 N         -71.9898   28.8810  -72.9585 N.am      10 UNK        -0.4509 
     23 C         -70.6591   28.7348  -72.9820 C.2       10 UNK         0.4899 
     24 O         -69.9969   28.3419  -72.0203 O.2       10 UNK        -0.4839 
     25 CA        -69.9558   29.0856  -74.3127 C.3       9 UNK         0.0222 
     26 CB        -68.6709   28.2595  -74.5343 C.3       9 UNK        -0.1966 
     27 N         -70.8401   28.9990  -75.4880 N.am      9 UNK        -0.4218 
     28 C         -71.5119   27.9183  -75.9178 C.2       9 UNK         0.5020 
     29 O         -71.4427   26.8105  -75.3777 O.2       9 UNK        -0.5274 
     30 CA        -72.4829   28.1626  -77.0875 C.3       8 UNK         0.0270 
     31 CB        -71.8120   28.8479  -78.2993 C.3       8 UNK        -0.1976 
     32 N         -73.2050   26.9486  -77.4774 N.am      8 UNK        -0.4313 
     33 C         -72.7483   25.8800  -78.1466 C.2       8 UNK         0.5041 
     34 O         -71.6093   25.7717  -78.6047 O.2       8 UNK        -0.5577 
     35 CA        -73.7474   24.7277  -78.3585 C.3       7 UNK         0.0284 
     36 CB        -73.5984   23.6831  -77.2409 C.3       7 UNK        -0.1958 
     37 N         -75.1434   25.1733  -78.4230 N.am      7 UNK        -0.4454 
     38 C         -75.6692   25.9119  -79.4112 C.2       7 UNK         0.5089 
     39 O         -75.0500   26.2495  -80.4206 O.2       7 UNK        -0.5125 
     40 CA        -77.1269   26.3707  -79.2331 C.3       6 UNK         0.0408 
     41 CB        -78.1082   25.2592  -79.6382 C.3       6 UNK        -0.1791 
     42 N         -77.4106   26.8075  -77.8637 N.am      6 UNK        -0.4762 
     43 C         -76.9556   27.9466  -77.3172 C.2       6 UNK         0.5007 
     44 O         -76.2738   28.7699  -77.9279 O.2       6 UNK        -0.5032 
     45 CA        -77.2853   28.1855  -75.8272 C.3       5 UNK         0.0783 
     46 C46       -78.6176   28.9581  -75.6488 C.3       11 UNK        -0.0857 
     47 S47       -78.4008   30.7594  -75.8614 S.3       11 UNK        -0.2512 
     48 C48       -79.3310   31.4538  -74.4528 C.3       11 UNK         0.0225 
     49 N         -77.2602   26.9287  -75.0678 N.am      5 UNK        -0.4615 
     50 C         -76.1279   26.2606  -74.8008 C.2       4 UNK         0.5053 
     51 O         -75.0142   26.6727  -75.1234 O.2       4 UNK        -0.5105 
     52 CA        -76.2374   24.8966  -74.0978 C.3       4 UNK         0.0263 
     53 CB        -76.1283   25.0356  -72.5679 C.3       4 UNK        -0.1981 
     54 N         -77.4320   24.1270  -74.4688 N.am      4 UNK        -0.4224 
     55 C         -77.6145   23.5952  -75.6875 C.2       3 UNK         0.4895 
     56 O         -76.8766   23.8239  -76.6445 O.2       3 UNK        -0.5091 
     57 CA        -78.8063   22.6490  -75.8784 C.3       3 UNK         0.0250 
     58 CB        -78.5929   21.3292  -75.1178 C.3       3 UNK        -0.1996 
     59 N         -80.0456   23.2816  -75.4390 N.am      3 UNK        -0.4254 
     60 C         -80.8657   23.9748  -76.2416 C.2       2 UNK         0.5004 
     61 O         -80.7108   24.0761  -77.4589 O.2       2 UNK        -0.5226 
     62 CA        -82.0582   24.6941  -75.5806 C.3       2 UNK         0.0269 
     63 CB        -83.3310   23.8398  -75.6951 C.3       2 UNK        -0.1926 
     64 N         -81.8408   25.0481  -74.1733 N.am      2 UNK        -0.4687 
     65 C         -80.8694   25.8620  -73.7346 C.2       1 UNK         0.5165 
     66 O         -80.0665   26.4133  -74.4888 O.2       1 UNK        -0.5079 
     67 H67       -81.0106   21.6085  -71.3485 H         1 UNK         0.0900 
     68 H68       -79.8157   22.1387  -70.1617 H         1 UNK         0.0900 
     69 H69       -81.4816   22.7121  -70.0530 H         1 UNK         0.0900 
     70 H70       -81.6972   24.8143  -70.7690 H         1 UNK         0.2959 
     71 H71       -81.5457   26.7129  -71.9209 H         1 UNK         0.1079 
     72 H72       -78.5868   26.0001  -71.9951 H         1 UNK         0.0837 
     73 H73       -79.1786   27.5621  -72.4339 H         1 UNK         0.0837 
     74 H74       -80.9301   28.9355  -70.4154 H         1 UNK         0.0685 
     75 H75       -79.8613   29.3268  -69.0939 H         1 UNK         0.0685 
     76 H76       -80.5429   29.9265  -72.5477 H         1 UNK         0.1434 
     77 H77       -76.8943   32.0231  -73.3602 H         1 UNK         0.1329 
     78 H78       -77.3493   29.8412  -69.6915 H         1 UNK         0.1335 
     79 H79       -75.3092   31.0017  -70.0777 H         1 UNK         0.0680 
     80 H80       -75.5319   32.4831  -70.9767 H         1 UNK         0.0680 
     81 H81       -74.9507   28.7827  -71.2238 H         1 UNK         0.1032 
     82 H82       -74.7888   28.6163  -72.9511 H         1 UNK         0.1032 
     83 H83       -72.4842   28.8872  -70.9515 H         1 UNK         0.0461 
     84 H84       -72.1648   26.4405  -73.4714 H         1 UNK         0.3453 
     85 H85       -72.5584   25.1001  -72.4213 H         1 UNK         0.3453 
     86 H86       -72.4441   29.2312  -73.7874 H         1 UNK         0.2984 
     87 H87       -69.6635   30.1332  -74.2297 H         1 UNK         0.0554 
     88 H88       -67.9500   28.4318  -73.7342 H         1 UNK         0.0847 
     89 H89       -68.1822   28.5281  -75.4707 H         1 UNK         0.0847 
     90 H90       -68.8777   27.1891  -74.5589 H         1 UNK         0.0847 
     91 H91       -70.9798   29.8684  -75.9847 H         1 UNK         0.3141 
     92 H92       -73.2532   28.8374  -76.7106 H         1 UNK         0.0743 
     93 H93       -70.9256   28.3080  -78.6336 H         1 UNK         0.0784 
     94 H94       -72.4990   28.9174  -79.1431 H         1 UNK         0.0784 
     95 H95       -71.4996   29.8646  -78.0604 H         1 UNK         0.0784 
     96 H96       -74.1174   26.8534  -77.0457 H         1 UNK         0.3213 
     97 H97       -73.5047   24.2499  -79.3101 H         1 UNK         0.0855 
     98 H98       -73.8172   24.1112  -76.2622 H         1 UNK         0.0814 
     99 H99       -72.5800   23.2941  -77.2050 H         1 UNK         0.0814 
    100 H100      -74.2661   22.8352  -77.3949 H         1 UNK         0.0814 
    101 H101      -75.7580   24.8606  -77.6732 H         1 UNK         0.3105 
    102 H102      -77.2918   27.2202  -79.8994 H         1 UNK         0.0547 
    103 H103      -77.9337   24.9425  -80.6673 H         1 UNK         0.0837 
    104 H104      -78.0111   24.3762  -79.0062 H         1 UNK         0.0837 
    105 H105      -79.1419   25.5995  -79.5753 H         1 UNK         0.0837 
    106 H106      -77.9291   26.1663  -77.2798 H         1 UNK         0.3020 
    107 H107      -76.4830   28.8077  -75.4218 H         1 UNK         0.1245 
    108 H108      -79.0073   28.7836  -74.6470 H         1 UNK         0.0781 
    109 H109      -79.3915   28.5978  -76.3294 H         1 UNK         0.0781 
    110 H110      -80.3810   31.1743  -74.5524 H         1 UNK         0.0836 
    111 H111      -79.2993   32.5425  -74.5135 H         1 UNK         0.0836 
    112 H112      -78.1609   26.5465  -74.7918 H         1 UNK         0.3022 
    113 H113      -75.3804   24.3029  -74.4229 H         1 UNK         0.0747 
    114 H114      -76.7612   24.3254  -72.0355 H         1 UNK         0.0793 
    115 H115      -75.1051   24.8455  -72.2463 H         1 UNK         0.0793 
    116 H116      -76.3776   26.0387  -72.2197 H         1 UNK         0.0793 
    117 H117      -78.0970   23.9060  -73.7296 H         1 UNK         0.3047 
    118 H118      -78.8715   22.4078  -76.9418 H         1 UNK         0.0822 
    119 H119      -79.4098   20.6317  -75.3034 H         1 UNK         0.0807 
    120 H120      -78.5229   21.4800  -74.0402 H         1 UNK         0.0807 
    121 H121      -77.6716   20.8409  -75.4385 H         1 UNK         0.0807 
    122 H122      -80.2124   23.2983  -74.4397 H         1 UNK         0.2946 
    123 H123      -82.2146   25.6229  -76.1341 H         1 UNK         0.1144 
    124 H124      -84.2040   24.3743  -75.3200 H         1 UNK         0.0793 
    125 H125      -83.2419   22.9061  -75.1382 H         1 UNK         0.0793 
    126 H126      -83.5349   23.5807  -76.7351 H         1 UNK         0.0793 
    127 H127      -82.4452   24.6118  -73.4917 H         1 UNK         0.2896 
@<TRIPOS>BOND
     1    1    2 1    
     2    1   67 1    
     3    1   68 1    
     4    1   69 1    
     5    2    3 2    
     6    2    4 am   BACKBONE|DICT|INTERRES
     7    4    5 1    
     8    4   70 1    
     9    5    6 1    
    10    5   65 1    
    11    5   71 1    
    12    6    7 1    
    13    6   72 1    
    14    6   73 1    
    15    7    8 1    
    16    8    9 1    
    17    8   74 1    
    18    8   75 1    
    19    9   10 ar   
    20    9   14 ar   
    21   10   11 ar   
    22   10   76 1    
    23   11   12 ar   
    24   11   48 1    
    25   12   13 ar   
    26   12   77 1    
    27   13   14 ar   
    28   13   15 1    
    29   14   78 1    
    30   15   16 1    
    31   15   79 1    
    32   15   80 1    
    33   16   17 1    
    34   17   18 1    
    35   17   81 1    
    36   17   82 1    
    37   18   19 1    
    38   18   22 1    
    39   18   83 1    
    40   19   20 am   BACKBONE|DICT|INTERRES
    41   19   21 2    
    42   20   84 1    
    43   20   85 1    
    44   22   23 am   BACKBONE|DICT|INTERRES
    45   22   86 1    
    46   23   24 2    
    47   23   25 1    
    48   25   26 1    
    49   25   27 1    
    50   25   87 1    
    51   26   88 1    
    52   26   89 1    
    53   26   90 1    
    54   27   28 am   BACKBONE|DICT|INTERRES
    55   27   91 1    
    56   28   29 2    
    57   28   30 1    
    58   30   31 1    
    59   30   32 1    
    60   30   92 1    
    61   31   93 1    
    62   31   94 1    
    63   31   95 1    
    64   32   33 am   BACKBONE|DICT|INTERRES
    65   32   96 1    
    66   33   34 2    
    67   33   35 1    
    68   35   36 1    
    69   35   37 1    
    70   35   97 1    
    71   36   98 1    
    72   36   99 1    
    73   36  100 1    
    74   37   38 am   BACKBONE|DICT|INTERRES
    75   37  101 1    
    76   38   39 2    
    77   38   40 1    
    78   40   41 1    
    79   40   42 1    
    80   40  102 1    
    81   41  103 1    
    82   41  104 1    
    83   41  105 1    
    84   42   43 am   BACKBONE|DICT|INTERRES
    85   42  106 1    
    86   43   44 2    
    87   43   45 1    
    88   45   46 1    
    89   45   49 1    
    90   45  107 1    
    91   46   47 1    
    92   46  108 1    
    93   46  109 1    
    94   47   48 1    
    95   48  110 1    
    96   48  111 1    
    97   49   50 am   BACKBONE|DICT|INTERRES
    98   49  112 1    
    99   50   51 2    
   100   50   52 1    
   101   52   53 1    
   102   52   54 1    
   103   52  113 1    
   104   53  114 1    
   105   53  115 1    
   106   53  116 1    
   107   54   55 am   BACKBONE|DICT|INTERRES
   108   54  117 1    
   109   55   56 2    
   110   55   57 1    
   111   57   58 1    
   112   57   59 1    
   113   57  118 1    
   114   58  119 1    
   115   58  120 1    
   116   58  121 1    
   117   59   60 am   BACKBONE|DICT|INTERRES
   118   59  122 1    
   119   60   61 2    
   120   60   62 1    
   121   62   63 1    
   122   62   64 1    
   123   62  123 1    
   124   63  124 1    
   125   63  125 1    
   126   63  126 1    
   127   64   65 am   BACKBONE|DICT|INTERRES
   128   64  127 1    
   129   65   66 2    
@<TRIPOS>SUBSTRUCTURE
     1 UNK         1 GROUP             0       ****    0 ROOT    
