@<TRIPOS>MOLECULE
3R135
127   129    1
SMALL
USER_CHARGES


@<TRIPOS>ATOM
      1 CA        -80.7689   26.3602  -74.9368 C.3       0 UNK        -0.1998 
      2 C         -82.0801   26.6854  -74.2248 C.2       0 UNK         0.4909 
      3 O         -83.0883   26.9029  -74.8943 O.2       0 UNK        -0.5240 
      4 N         -82.1287   26.7427  -72.8862 N.am      1 UNK        -0.4739 
      5 CA        -81.0463   26.4505  -71.9364 C.3       1 UNK         0.0864 
      6 C6        -81.4182   26.8615  -70.4896 C.3       11 UNK        -0.0881 
      7 S7        -81.9738   28.5943  -70.3546 S.3       11 UNK        -0.2682 
      8 C8        -80.4170   29.4643  -69.9805 C.3       11 UNK         0.0289 
      9 C9        -79.4703   29.5452  -71.1739 C.ar      11 UNK        -0.0687 
     10 C10       -79.9043   30.0782  -72.3927 C.ar      11 UNK        -0.0823 
     11 C11       -79.0201   30.2185  -73.4675 C.ar      11 UNK        -0.0830 
     12 C12       -77.6871   29.8249  -73.3147 C.ar      11 UNK        -0.1021 
     13 C13       -77.2428   29.2817  -72.1058 C.ar      11 UNK        -0.0753 
     14 C14       -78.1392   29.1384  -71.0420 C.ar      11 UNK        -0.0933 
     15 C15       -75.7869   28.8816  -71.9319 C.3       11 UNK         0.0166 
     16 S16       -74.8101   30.2865  -71.3166 S.3       11 UNK        -0.2615 
     17 C17       -73.2713   29.4692  -70.7759 C.3       11 UNK        -0.0865 
     18 CA        -72.0544   29.8265  -71.6668 C.3       10 UNK         0.0862 
     19 C         -70.7415   29.3278  -71.0005 C.2       10 UNK         0.5551 
     20 N         -69.9833   30.2183  -70.3759 N.am      10 UNK        -0.7319 
     21 O         -70.4373   28.1372  -71.0000 O.2       10 UNK        -0.5018 
     22 N         -72.2285   29.3178  -73.0357 N.am      10 UNK        -0.4509 
     23 C         -71.3882   29.5209  -74.0592 C.2       10 UNK         0.4899 
     24 O         -70.3951   30.2471  -73.9907 O.2       10 UNK        -0.4839 
     25 CA        -71.7278   28.8273  -75.3964 C.3       9 UNK         0.0222 
     26 CB        -70.4696   28.4859  -76.2223 C.3       9 UNK        -0.1966 
     27 N         -72.5999   27.6505  -75.2760 N.am      9 UNK        -0.4218 
     28 C         -72.3471   26.5067  -74.6187 C.2       9 UNK         0.5020 
     29 O         -71.3273   26.2918  -73.9638 O.2       9 UNK        -0.5274 
     30 CA        -73.4159   25.4068  -74.7234 C.3       8 UNK         0.0270 
     31 CB        -74.6534   25.7499  -73.8783 C.3       8 UNK        -0.1976 
     32 N         -73.8193   25.1612  -76.1077 N.am      8 UNK        -0.4313 
     33 C         -73.0320   24.6244  -77.0509 C.2       8 UNK         0.5041 
     34 O         -71.8995   24.1885  -76.8401 O.2       8 UNK        -0.5577 
     35 CA        -73.5987   24.5856  -78.4776 C.3       7 UNK         0.0284 
     36 CB        -74.5423   23.3855  -78.6668 C.3       7 UNK        -0.1958 
     37 N         -74.2947   25.8321  -78.8047 N.am      7 UNK        -0.4454 
     38 C         -73.6758   26.9669  -79.1612 C.2       7 UNK         0.5089 
     39 O         -72.4593   27.0598  -79.3254 O.2       7 UNK        -0.5125 
     40 CA        -74.5535   28.2125  -79.3821 C.3       6 UNK         0.0408 
     41 CB        -74.8574   28.3921  -80.8780 C.3       6 UNK        -0.1791 
     42 N         -75.8142   28.1853  -78.6356 N.am      6 UNK        -0.4762 
     43 C         -75.9186   28.3568  -77.3099 C.2       6 UNK         0.5007 
     44 O         -74.9591   28.5450  -76.5623 O.2       6 UNK        -0.5032 
     45 CA        -77.3359   28.2434  -76.7136 C.3       5 UNK         0.0783 
     46 C46       -78.0928   29.5816  -76.8946 C.3       11 UNK        -0.0857 
     47 S47       -79.7290   29.5999  -76.0860 S.3       11 UNK        -0.2512 
     48 C48       -79.5009   30.8408  -74.7714 C.3       11 UNK         0.0225 
     49 N         -78.0896   27.0937  -77.2372 N.am      5 UNK        -0.4615 
     50 C         -77.6712   25.8229  -77.1899 C.2       4 UNK         0.5053 
     51 O         -76.5449   25.4860  -76.8132 O.2       4 UNK        -0.5105 
     52 CA        -78.6441   24.7439  -77.6741 C.3       4 UNK         0.0263 
     53 CB        -78.4829   24.4969  -79.1826 C.3       4 UNK        -0.1981 
     54 N         -78.3019   23.5343  -76.9393 N.am      4 UNK        -0.4224 
     55 C         -79.1495   22.7071  -76.3235 C.2       3 UNK         0.4895 
     56 O         -80.3735   22.7460  -76.4557 O.2       3 UNK        -0.5091 
     57 CA        -78.5249   21.6757  -75.3598 C.3       3 UNK         0.0250 
     58 CB        -77.0199   21.4136  -75.6105 C.3       3 UNK        -0.1996 
     59 N         -78.7515   22.0368  -73.9526 N.am      3 UNK        -0.4254 
     60 C         -78.4234   23.1954  -73.3596 C.2       2 UNK         0.5004 
     61 O         -77.8485   24.1279  -73.9236 O.2       2 UNK        -0.5226 
     62 CA        -78.7838   23.3505  -71.8746 C.3       2 UNK         0.0269 
     63 CB        -77.5283   23.2164  -70.9972 C.3       2 UNK        -0.1926 
     64 N         -79.3819   24.6693  -71.6623 N.am      2 UNK        -0.4687 
     65 C         -80.6488   24.9608  -71.9790 C.2       1 UNK         0.5165 
     66 O         -81.4838   24.1077  -72.2916 O.2       1 UNK        -0.5079 
     67 H67       -80.5708   25.2889  -74.9109 H         1 UNK         0.0900 
     68 H68       -79.9216   26.8872  -74.4996 H         1 UNK         0.0900 
     69 H69       -80.8327   26.6612  -75.9814 H         1 UNK         0.0900 
     70 H70       -83.0119   26.9686  -72.4525 H         1 UNK         0.2959 
     71 H71       -80.1771   27.0373  -72.2372 H         1 UNK         0.1079 
     72 H72       -82.2248   26.2299  -70.1113 H         1 UNK         0.0837 
     73 H73       -80.5746   26.7063  -69.8141 H         1 UNK         0.0837 
     74 H74       -80.6570   30.4802  -69.6640 H         1 UNK         0.0685 
     75 H75       -79.9356   28.9854  -69.1264 H         1 UNK         0.0685 
     76 H76       -80.9319   30.3996  -72.4957 H         1 UNK         0.1434 
     77 H77       -76.9885   29.9584  -74.1286 H         1 UNK         0.1329 
     78 H78       -77.7885   28.7392  -70.1000 H         1 UNK         0.1335 
     79 H79       -75.7151   28.0426  -71.2379 H         1 UNK         0.0680 
     80 H80       -75.3711   28.5426  -72.8811 H         1 UNK         0.0680 
     81 H81       -73.4094   28.3873  -70.7289 H         1 UNK         0.1032 
     82 H82       -73.0917   29.7883  -69.7471 H         1 UNK         0.1032 
     83 H83       -72.0006   30.9147  -71.7427 H         1 UNK         0.0461 
     84 H84       -70.2307   31.1957  -70.3631 H         1 UNK         0.3453 
     85 H85       -69.1376   29.9102  -69.9218 H         1 UNK         0.3453 
     86 H86       -73.0138   28.7051  -73.1852 H         1 UNK         0.2984 
     87 H87       -72.3022   29.5574  -75.9683 H         1 UNK         0.0554 
     88 H88       -70.7341   28.0210  -77.1723 H         1 UNK         0.0847 
     89 H89       -69.8088   27.8031  -75.6874 H         1 UNK         0.0847 
     90 H90       -69.8933   29.3828  -76.4526 H         1 UNK         0.0847 
     91 H91       -73.4927   27.7446  -75.7578 H         1 UNK         0.3141 
     92 H92       -72.9830   24.4848  -74.3294 H         1 UNK         0.0743 
     93 H93       -75.2100   26.5904  -74.2939 H         1 UNK         0.0784 
     94 H94       -75.3335   24.9004  -73.8255 H         1 UNK         0.0784 
     95 H95       -74.3759   26.0046  -72.8547 H         1 UNK         0.0784 
     96 H96       -74.7689   25.4267  -76.3638 H         1 UNK         0.3213 
     97 H97       -72.7604   24.4622  -79.1673 H         1 UNK         0.0855 
     98 H98       -75.3933   23.4191  -77.9875 H         1 UNK         0.0814 
     99 H99       -74.0169   22.4485  -78.4778 H         1 UNK         0.0814 
    100 H100      -74.9267   23.3399  -79.6857 H         1 UNK         0.0814 
    101 H101      -75.2891   25.8610  -78.6274 H         1 UNK         0.3105 
    102 H102      -73.9795   29.0793  -79.0468 H         1 UNK         0.0547 
    103 H103      -73.9357   28.4470  -81.4591 H         1 UNK         0.0837 
    104 H104      -75.4429   27.5620  -81.2752 H         1 UNK         0.0837 
    105 H105      -75.4093   29.3135  -81.0640 H         1 UNK         0.0837 
    106 H106      -76.6575   28.0195  -79.1666 H         1 UNK         0.3020 
    107 H107      -77.2078   28.0647  -75.6439 H         1 UNK         0.1245 
    108 H108      -77.4936   30.4123  -76.5174 H         1 UNK         0.0781 
    109 H109      -78.2487   29.7893  -77.9550 H         1 UNK         0.0781 
    110 H110      -78.8104   31.6219  -75.0918 H         1 UNK         0.0836 
    111 H111      -80.4566   31.3432  -74.6142 H         1 UNK         0.0836 
    112 H112      -79.0168   27.2976  -77.5810 H         1 UNK         0.3022 
    113 H113      -79.6675   25.0515  -77.4523 H         1 UNK         0.0747 
    114 H114      -79.1442   23.6998  -79.5226 H         1 UNK         0.0793 
    115 H115      -78.7318   25.3909  -79.7554 H         1 UNK         0.0793 
    116 H116      -77.4618   24.2145  -79.4415 H         1 UNK         0.0793 
    117 H117      -77.3298   23.5018  -76.6585 H         1 UNK         0.3047 
    118 H118      -79.0554   20.7381  -75.5336 H         1 UNK         0.0822 
    119 H119      -76.6625   20.5882  -74.9948 H         1 UNK         0.0807 
    120 H120      -76.3996   22.2813  -75.3811 H         1 UNK         0.0807 
    121 H121      -76.8349   21.1376  -76.6497 H         1 UNK         0.0807 
    122 H122      -79.2489   21.3462  -73.4076 H         1 UNK         0.2946 
    123 H123      -79.4977   22.5753  -71.5860 H         1 UNK         0.1144 
    124 H124      -77.0696   22.2346  -71.1220 H         1 UNK         0.0793 
    125 H125      -76.7740   23.9623  -71.2525 H         1 UNK         0.0793 
    126 H126      -77.7687   23.3297  -69.9399 H         1 UNK         0.0793 
    127 H127      -78.7402   25.4180  -71.4441 H         1 UNK         0.2896 
@<TRIPOS>BOND
     1    1    2 1    
     2    1   67 1    
     3    1   68 1    
     4    1   69 1    
     5    2    3 2    
     6    2    4 am   BACKBONE|DICT|INTERRES
     7    4    5 1    
     8    4   70 1    
     9    5    6 1    
    10    5   65 1    
    11    5   71 1    
    12    6    7 1    
    13    6   72 1    
    14    6   73 1    
    15    7    8 1    
    16    8    9 1    
    17    8   74 1    
    18    8   75 1    
    19    9   10 ar   
    20    9   14 ar   
    21   10   11 ar   
    22   10   76 1    
    23   11   12 ar   
    24   11   48 1    
    25   12   13 ar   
    26   12   77 1    
    27   13   14 ar   
    28   13   15 1    
    29   14   78 1    
    30   15   16 1    
    31   15   79 1    
    32   15   80 1    
    33   16   17 1    
    34   17   18 1    
    35   17   81 1    
    36   17   82 1    
    37   18   19 1    
    38   18   22 1    
    39   18   83 1    
    40   19   20 am   BACKBONE|DICT|INTERRES
    41   19   21 2    
    42   20   84 1    
    43   20   85 1    
    44   22   23 am   BACKBONE|DICT|INTERRES
    45   22   86 1    
    46   23   24 2    
    47   23   25 1    
    48   25   26 1    
    49   25   27 1    
    50   25   87 1    
    51   26   88 1    
    52   26   89 1    
    53   26   90 1    
    54   27   28 am   BACKBONE|DICT|INTERRES
    55   27   91 1    
    56   28   29 2    
    57   28   30 1    
    58   30   31 1    
    59   30   32 1    
    60   30   92 1    
    61   31   93 1    
    62   31   94 1    
    63   31   95 1    
    64   32   33 am   BACKBONE|DICT|INTERRES
    65   32   96 1    
    66   33   34 2    
    67   33   35 1    
    68   35   36 1    
    69   35   37 1    
    70   35   97 1    
    71   36   98 1    
    72   36   99 1    
    73   36  100 1    
    74   37   38 am   BACKBONE|DICT|INTERRES
    75   37  101 1    
    76   38   39 2    
    77   38   40 1    
    78   40   41 1    
    79   40   42 1    
    80   40  102 1    
    81   41  103 1    
    82   41  104 1    
    83   41  105 1    
    84   42   43 am   BACKBONE|DICT|INTERRES
    85   42  106 1    
    86   43   44 2    
    87   43   45 1    
    88   45   46 1    
    89   45   49 1    
    90   45  107 1    
    91   46   47 1    
    92   46  108 1    
    93   46  109 1    
    94   47   48 1    
    95   48  110 1    
    96   48  111 1    
    97   49   50 am   BACKBONE|DICT|INTERRES
    98   49  112 1    
    99   50   51 2    
   100   50   52 1    
   101   52   53 1    
   102   52   54 1    
   103   52  113 1    
   104   53  114 1    
   105   53  115 1    
   106   53  116 1    
   107   54   55 am   BACKBONE|DICT|INTERRES
   108   54  117 1    
   109   55   56 2    
   110   55   57 1    
   111   57   58 1    
   112   57   59 1    
   113   57  118 1    
   114   58  119 1    
   115   58  120 1    
   116   58  121 1    
   117   59   60 am   BACKBONE|DICT|INTERRES
   118   59  122 1    
   119   60   61 2    
   120   60   62 1    
   121   62   63 1    
   122   62   64 1    
   123   62  123 1    
   124   63  124 1    
   125   63  125 1    
   126   63  126 1    
   127   64   65 am   BACKBONE|DICT|INTERRES
   128   64  127 1    
   129   65   66 2    
@<TRIPOS>SUBSTRUCTURE
     1 UNK         1 GROUP             0       ****    0 ROOT    
