@<TRIPOS>MOLECULE
3R135
127   129    1
SMALL
USER_CHARGES


@<TRIPOS>ATOM
      1 CA        -78.9177   21.9511  -69.3223 C.3       0 UNK        -0.1998 
      2 C         -79.3706   23.0837  -70.2305 C.2       0 UNK         0.4909 
      3 O         -78.8152   23.2574  -71.3145 O.2       0 UNK        -0.5240 
      4 N         -80.3925   23.8422  -69.8090 N.am      1 UNK        -0.4739 
      5 CA        -80.9874   25.0137  -70.4770 C.3       1 UNK         0.0864 
      6 C6        -79.9545   26.1441  -70.7453 C.3       11 UNK        -0.0881 
      7 S7        -80.6836   27.8117  -70.6016 S.3       11 UNK        -0.2682 
      8 C8        -80.7988   28.3271  -72.3513 C.3       11 UNK         0.0289 
      9 C9        -79.5054   28.8362  -72.9942 C.ar      11 UNK        -0.0687 
     10 C10       -79.5971   29.5043  -74.2204 C.ar      11 UNK        -0.0823 
     11 C11       -78.4582   30.0114  -74.8540 C.ar      11 UNK        -0.0830 
     12 C12       -77.2094   29.8448  -74.2505 C.ar      11 UNK        -0.1021 
     13 C13       -77.0965   29.1742  -73.0301 C.ar      11 UNK        -0.0753 
     14 C14       -78.2423   28.6723  -72.4087 C.ar      11 UNK        -0.0933 
     15 C15       -75.7345   29.0011  -72.3804 C.3       11 UNK         0.0166 
     16 S16       -75.1798   30.5563  -71.6124 S.3       11 UNK        -0.2615 
     17 C17       -73.5071   30.1067  -71.0339 C.3       11 UNK        -0.0865 
     18 CA        -72.3953   30.5155  -72.0371 C.3       10 UNK         0.0862 
     19 C         -70.9816   30.2947  -71.4208 C.2       10 UNK         0.5551 
     20 N         -70.1469   29.4056  -71.9482 N.am      10 UNK        -0.7319 
     21 O         -70.6353   30.9506  -70.4415 O.2       10 UNK        -0.5018 
     22 N         -72.5979   29.8598  -73.3343 N.am      10 UNK        -0.4509 
     23 C         -72.0636   30.2271  -74.5031 C.2       10 UNK         0.4899 
     24 O         -71.3901   31.2462  -74.6615 O.2       10 UNK        -0.4839 
     25 CA        -72.3364   29.2783  -75.6902 C.3       9 UNK         0.0222 
     26 CB        -71.2418   29.3555  -76.7747 C.3       9 UNK        -0.1966 
     27 N         -72.5713   27.8796  -75.2918 N.am      9 UNK        -0.4218 
     28 C         -71.7335   27.0934  -74.5934 C.2       9 UNK         0.5020 
     29 O         -70.6295   27.4549  -74.1840 O.2       9 UNK        -0.5274 
     30 CA        -72.2236   25.6826  -74.2525 C.3       8 UNK         0.0270 
     31 CB        -73.1148   25.7205  -72.9986 C.3       8 UNK        -0.1976 
     32 N         -72.9682   25.0962  -75.3676 N.am      8 UNK        -0.4313 
     33 C         -72.5204   24.0958  -76.1361 C.2       8 UNK         0.5041 
     34 O         -71.4296   23.5430  -75.9865 O.2       8 UNK        -0.5577 
     35 CA        -73.4530   23.6175  -77.2584 C.3       7 UNK         0.0284 
     36 CB        -74.5956   22.7604  -76.6881 C.3       7 UNK        -0.1958 
     37 N         -74.0065   24.7169  -78.0519 N.am      7 UNK        -0.4454 
     38 C         -73.3204   25.4058  -78.9762 C.2       7 UNK         0.5089 
     39 O         -72.1245   25.2330  -79.2116 O.2       7 UNK        -0.5125 
     40 CA        -74.1029   26.4397  -79.8039 C.3       6 UNK         0.0408 
     41 CB        -74.6438   25.7900  -81.0880 C.3       6 UNK        -0.1791 
     42 N         -75.2189   27.0161  -79.0500 N.am      6 UNK        -0.4762 
     43 C         -75.1735   28.1952  -78.4153 C.2       6 UNK         0.5007 
     44 O         -74.2224   28.9725  -78.4772 O.2       6 UNK        -0.5032 
     45 CA        -76.3932   28.5622  -77.5494 C.3       5 UNK         0.0783 
     46 C46       -77.4202   29.3828  -78.3709 C.3       11 UNK        -0.0857 
     47 S47       -79.0277   29.6616  -77.5455 S.3       11 UNK        -0.2512 
     48 C48       -78.5931   30.7704  -76.1680 C.3       11 UNK         0.0225 
     49 N         -76.9976   27.3948  -76.9049 N.am      5 UNK        -0.4615 
     50 C         -76.4372   26.6325  -75.9616 C.2       4 UNK         0.5053 
     51 O         -75.2617   26.7582  -75.6066 O.2       4 UNK        -0.5105 
     52 CA        -77.3216   25.5379  -75.3219 C.3       4 UNK         0.0263 
     53 CB        -76.8236   25.1452  -73.9191 C.3       4 UNK        -0.1981 
     54 N         -78.7508   25.8687  -75.2331 N.am      4 UNK        -0.4224 
     55 C         -79.6213   25.9110  -76.2521 C.2       3 UNK         0.4895 
     56 O         -79.2933   25.7574  -77.4301 O.2       3 UNK        -0.5091 
     57 CA        -81.0965   26.1607  -75.8799 C.3       3 UNK         0.0250 
     58 CB        -82.0297   26.1736  -77.1086 C.3       3 UNK        -0.1996 
     59 N         -81.5915   25.2154  -74.8685 N.am      3 UNK        -0.4254 
     60 C         -81.5772   23.8734  -74.9240 C.2       2 UNK         0.5004 
     61 O         -81.1515   23.2267  -75.8826 O.2       2 UNK        -0.5226 
     62 CA        -82.1134   23.1347  -73.6815 C.3       2 UNK         0.0269 
     63 CB        -81.9396   21.6067  -73.7750 C.3       2 UNK        -0.1926 
     64 N         -81.4616   23.6027  -72.4561 N.am      2 UNK        -0.4687 
     65 C         -81.8116   24.6791  -71.7432 C.2       1 UNK         0.5165 
     66 O         -82.7520   25.4063  -72.0651 O.2       1 UNK        -0.5079 
     67 H67       -79.4947   21.9124  -68.3985 H         1 UNK         0.0900 
     68 H68       -77.8676   22.0789  -69.0611 H         1 UNK         0.0900 
     69 H69       -79.0281   20.9946  -69.8324 H         1 UNK         0.0900 
     70 H70       -80.8222   23.6096  -68.9235 H         1 UNK         0.2959 
     71 H71       -81.7127   25.3875  -69.7520 H         1 UNK         0.1079 
     72 H72       -79.4575   26.0154  -71.7089 H         1 UNK         0.0837 
     73 H73       -79.1564   26.1005  -70.0026 H         1 UNK         0.0837 
     74 H74       -81.1921   27.5022  -72.9437 H         1 UNK         0.0685 
     75 H75       -81.5457   29.1207  -72.4036 H         1 UNK         0.0685 
     76 H76       -80.5646   29.6434  -74.6839 H         1 UNK         0.1434 
     77 H77       -76.3220   30.2506  -74.7154 H         1 UNK         0.1329 
     78 H78       -78.1351   28.1671  -71.4606 H         1 UNK         0.1335 
     79 H79       -75.0234   28.6766  -73.1394 H         1 UNK         0.0680 
     80 H80       -75.7633   28.2136  -71.6256 H         1 UNK         0.0680 
     81 H81       -73.3540   30.6088  -70.0765 H         1 UNK         0.1032 
     82 H82       -73.4641   29.0373  -70.8188 H         1 UNK         0.1032 
     83 H83       -72.4812   31.5910  -72.2042 H         1 UNK         0.0461 
     84 H84       -69.2367   29.2831  -71.5343 H         1 UNK         0.3453 
     85 H85       -70.4075   28.8524  -72.7577 H         1 UNK         0.3453 
     86 H86       -73.1215   29.0003  -73.3119 H         1 UNK         0.2984 
     87 H87       -73.2695   29.6280  -76.1313 H         1 UNK         0.0554 
     88 H88       -71.4696   28.6957  -77.6122 H         1 UNK         0.0847 
     89 H89       -70.2630   29.0772  -76.3830 H         1 UNK         0.0847 
     90 H90       -71.1578   30.3659  -77.1764 H         1 UNK         0.0847 
     91 H91       -73.4863   27.5061  -75.5301 H         1 UNK         0.3141 
     92 H92       -71.3446   25.0782  -74.0186 H         1 UNK         0.0743 
     93 H93       -74.0119   26.3209  -73.1512 H         1 UNK         0.0784 
     94 H94       -73.4302   24.7178  -72.7100 H         1 UNK         0.0784 
     95 H95       -72.5770   26.1462  -72.1502 H         1 UNK         0.0784 
     96 H96       -73.8693   25.5171  -75.5771 H         1 UNK         0.3213 
     97 H97       -72.8652   22.9831  -77.9262 H         1 UNK         0.0855 
     98 H98       -74.1997   21.9039  -76.1405 H         1 UNK         0.0814 
     99 H99       -75.2331   22.3678  -77.4806 H         1 UNK         0.0814 
    100 H100      -75.2232   23.3215  -75.9966 H         1 UNK         0.0814 
    101 H101      -74.9826   24.9283  -77.9239 H         1 UNK         0.3105 
    102 H102      -73.4023   27.2241  -80.0984 H         1 UNK         0.0547 
    103 H103      -73.8327   25.3652  -81.6812 H         1 UNK         0.0837 
    104 H104      -75.3462   24.9839  -80.8728 H         1 UNK         0.0837 
    105 H105      -75.1535   26.5204  -81.7163 H         1 UNK         0.0837 
    106 H106      -76.0658   26.4701  -78.9792 H         1 UNK         0.3020 
    107 H107      -76.0130   29.2015  -76.7525 H         1 UNK         0.1245 
    108 H108      -77.6413   28.8758  -79.3124 H         1 UNK         0.0781 
    109 H109      -76.9980   30.3512  -78.6465 H         1 UNK         0.0781 
    110 H110      -79.3792   31.5196  -76.0633 H         1 UNK         0.0836 
    111 H111      -77.6814   31.3224  -76.4011 H         1 UNK         0.0836 
    112 H112      -77.9516   27.1797  -77.1746 H         1 UNK         0.3022 
    113 H113      -77.2340   24.6589  -75.9628 H         1 UNK         0.0747 
    114 H114      -75.8043   24.7603  -73.9540 H         1 UNK         0.0793 
    115 H115      -76.8300   25.9961  -73.2369 H         1 UNK         0.0793 
    116 H116      -77.4416   24.3604  -73.4822 H         1 UNK         0.0793 
    117 H117      -79.1025   26.0430  -74.3041 H         1 UNK         0.3047 
    118 H118      -81.1355   27.1541  -75.4316 H         1 UNK         0.0822 
    119 H119      -82.0276   25.2153  -77.6292 H         1 UNK         0.0807 
    120 H120      -81.7186   26.9344  -77.8259 H         1 UNK         0.0807 
    121 H121      -83.0575   26.3986  -76.8241 H         1 UNK         0.0807 
    122 H122      -81.9857   25.6250  -74.0289 H         1 UNK         0.2946 
    123 H123      -83.1842   23.3445  -73.6235 H         1 UNK         0.1144 
    124 H124      -82.4500   21.2065  -74.6522 H         1 UNK         0.0793 
    125 H125      -80.8886   21.3244  -73.8498 H         1 UNK         0.0793 
    126 H126      -82.3598   21.1061  -72.9026 H         1 UNK         0.0793 
    127 H127      -80.6115   23.1246  -72.1750 H         1 UNK         0.2896 
@<TRIPOS>BOND
     1    1    2 1    
     2    1   67 1    
     3    1   68 1    
     4    1   69 1    
     5    2    3 2    
     6    2    4 am   BACKBONE|DICT|INTERRES
     7    4    5 1    
     8    4   70 1    
     9    5    6 1    
    10    5   65 1    
    11    5   71 1    
    12    6    7 1    
    13    6   72 1    
    14    6   73 1    
    15    7    8 1    
    16    8    9 1    
    17    8   74 1    
    18    8   75 1    
    19    9   10 ar   
    20    9   14 ar   
    21   10   11 ar   
    22   10   76 1    
    23   11   12 ar   
    24   11   48 1    
    25   12   13 ar   
    26   12   77 1    
    27   13   14 ar   
    28   13   15 1    
    29   14   78 1    
    30   15   16 1    
    31   15   79 1    
    32   15   80 1    
    33   16   17 1    
    34   17   18 1    
    35   17   81 1    
    36   17   82 1    
    37   18   19 1    
    38   18   22 1    
    39   18   83 1    
    40   19   20 am   BACKBONE|DICT|INTERRES
    41   19   21 2    
    42   20   84 1    
    43   20   85 1    
    44   22   23 am   BACKBONE|DICT|INTERRES
    45   22   86 1    
    46   23   24 2    
    47   23   25 1    
    48   25   26 1    
    49   25   27 1    
    50   25   87 1    
    51   26   88 1    
    52   26   89 1    
    53   26   90 1    
    54   27   28 am   BACKBONE|DICT|INTERRES
    55   27   91 1    
    56   28   29 2    
    57   28   30 1    
    58   30   31 1    
    59   30   32 1    
    60   30   92 1    
    61   31   93 1    
    62   31   94 1    
    63   31   95 1    
    64   32   33 am   BACKBONE|DICT|INTERRES
    65   32   96 1    
    66   33   34 2    
    67   33   35 1    
    68   35   36 1    
    69   35   37 1    
    70   35   97 1    
    71   36   98 1    
    72   36   99 1    
    73   36  100 1    
    74   37   38 am   BACKBONE|DICT|INTERRES
    75   37  101 1    
    76   38   39 2    
    77   38   40 1    
    78   40   41 1    
    79   40   42 1    
    80   40  102 1    
    81   41  103 1    
    82   41  104 1    
    83   41  105 1    
    84   42   43 am   BACKBONE|DICT|INTERRES
    85   42  106 1    
    86   43   44 2    
    87   43   45 1    
    88   45   46 1    
    89   45   49 1    
    90   45  107 1    
    91   46   47 1    
    92   46  108 1    
    93   46  109 1    
    94   47   48 1    
    95   48  110 1    
    96   48  111 1    
    97   49   50 am   BACKBONE|DICT|INTERRES
    98   49  112 1    
    99   50   51 2    
   100   50   52 1    
   101   52   53 1    
   102   52   54 1    
   103   52  113 1    
   104   53  114 1    
   105   53  115 1    
   106   53  116 1    
   107   54   55 am   BACKBONE|DICT|INTERRES
   108   54  117 1    
   109   55   56 2    
   110   55   57 1    
   111   57   58 1    
   112   57   59 1    
   113   57  118 1    
   114   58  119 1    
   115   58  120 1    
   116   58  121 1    
   117   59   60 am   BACKBONE|DICT|INTERRES
   118   59  122 1    
   119   60   61 2    
   120   60   62 1    
   121   62   63 1    
   122   62   64 1    
   123   62  123 1    
   124   63  124 1    
   125   63  125 1    
   126   63  126 1    
   127   64   65 am   BACKBONE|DICT|INTERRES
   128   64  127 1    
   129   65   66 2    
@<TRIPOS>SUBSTRUCTURE
     1 UNK         1 GROUP             0       ****    0 ROOT    
