@<TRIPOS>MOLECULE
3R135
127   129    1
SMALL
USER_CHARGES


@<TRIPOS>ATOM
      1 CA        -81.7330   25.1013  -71.7433 C.3       0 UNK        -0.1998 
      2 C         -82.5894   26.2795  -72.1834 C.2       0 UNK         0.4909 
      3 O         -83.5950   26.5776  -71.5391 O.2       0 UNK        -0.5240 
      4 N         -82.2083   26.9387  -73.2840 N.am      1 UNK        -0.4739 
      5 CA        -82.8978   28.1083  -73.8561 C.3       1 UNK         0.0864 
      6 C6        -81.9191   29.2609  -74.2310 C.3       11 UNK        -0.0881 
      7 S7        -80.6512   29.6215  -72.9651 S.3       11 UNK        -0.2682 
      8 C8        -79.1898   28.9090  -73.7909 C.3       11 UNK         0.0289 
      9 C9        -78.1572   28.3635  -72.8148 C.ar      11 UNK        -0.0687 
     10 C10       -78.5227   27.4052  -71.8649 C.ar      11 UNK        -0.0823 
     11 C11       -77.5710   26.8624  -70.9983 C.ar      11 UNK        -0.0830 
     12 C12       -76.2417   27.2875  -71.0828 C.ar      11 UNK        -0.1021 
     13 C13       -75.8583   28.2286  -72.0417 C.ar      11 UNK        -0.0753 
     14 C14       -76.8201   28.7618  -72.9064 C.ar      11 UNK        -0.0933 
     15 C15       -74.4030   28.6537  -72.1614 C.3       11 UNK         0.0166 
     16 S16       -74.1841   30.4007  -71.7009 S.3       11 UNK        -0.2615 
     17 C17       -72.4164   30.6695  -72.0703 C.3       11 UNK        -0.0865 
     18 CA        -72.1955   31.2290  -73.5030 C.3       10 UNK         0.0862 
     19 C         -70.7732   31.8380  -73.6884 C.2       10 UNK         0.5551 
     20 N         -70.0557   31.5578  -74.7707 N.am      10 UNK        -0.7319 
     21 O         -70.3128   32.5969  -72.8389 O.2       10 UNK        -0.5018 
     22 N         -72.5223   30.2128  -74.5135 N.am      10 UNK        -0.4509 
     23 C         -73.2342   30.4111  -75.6275 C.2       10 UNK         0.4899 
     24 O         -73.7636   31.4821  -75.9278 O.2       10 UNK        -0.4839 
     25 CA        -73.3637   29.1893  -76.5619 C.3       9 UNK         0.0222 
     26 CB        -73.7852   29.5733  -77.9954 C.3       9 UNK        -0.1966 
     27 N         -72.1661   28.3343  -76.5887 N.am      9 UNK        -0.4218 
     28 C         -70.9145   28.7103  -76.9099 C.2       9 UNK         0.5020 
     29 O         -70.5998   29.8691  -77.1846 O.2       9 UNK        -0.5274 
     30 CA        -69.8054   27.6400  -76.8823 C.3       8 UNK         0.0270 
     31 CB        -68.9236   27.8229  -75.6351 C.3       8 UNK        -0.1976 
     32 N         -70.3051   26.2648  -76.9111 N.am      8 UNK        -0.4313 
     33 C         -70.9190   25.6840  -77.9507 C.2       8 UNK         0.5041 
     34 O         -71.0402   26.2138  -79.0557 O.2       8 UNK        -0.5577 
     35 CA        -71.5219   24.2852  -77.7159 C.3       7 UNK         0.0284 
     36 CB        -70.6458   23.2070  -78.3752 C.3       7 UNK        -0.1958 
     37 N         -71.7393   23.9309  -76.3054 N.am      7 UNK        -0.4454 
     38 C         -72.5479   24.5765  -75.4543 C.2       7 UNK         0.5089 
     39 O         -73.1490   25.6193  -75.7261 O.2       7 UNK        -0.5125 
     40 CA        -72.6610   23.9893  -74.0451 C.3       6 UNK         0.0408 
     41 CB        -71.7311   24.7330  -73.0721 C.3       6 UNK        -0.1791 
     42 N         -74.0423   24.1353  -73.6016 N.am      6 UNK        -0.4762 
     43 C         -74.7788   23.1892  -73.0042 C.2       6 UNK         0.5007 
     44 O         -74.3401   22.0825  -72.6879 O.2       6 UNK        -0.5032 
     45 CA        -76.2540   23.5290  -72.6995 C.3       5 UNK         0.0783 
     46 C46       -76.4428   23.7662  -71.1797 C.3       11 UNK        -0.0857 
     47 S47       -78.1654   24.1652  -70.7237 S.3       11 UNK        -0.2512 
     48 C48       -77.9838   25.8161  -69.9739 C.3       11 UNK         0.0225 
     49 N         -76.7511   24.6430  -73.5205 N.am      5 UNK        -0.4615 
     50 C         -77.0709   24.5291  -74.8158 C.2       4 UNK         0.5053 
     51 O         -76.9804   23.4795  -75.4564 O.2       4 UNK        -0.5105 
     52 CA        -77.5347   25.8082  -75.5256 C.3       4 UNK         0.0263 
     53 CB        -76.3707   26.4697  -76.2781 C.3       4 UNK        -0.1981 
     54 N         -78.6259   25.5179  -76.4574 N.am      4 UNK        -0.4224 
     55 C         -79.8987   25.3696  -76.0738 C.2       3 UNK         0.4895 
     56 O         -80.2903   25.5664  -74.9179 O.2       3 UNK        -0.5091 
     57 CA        -80.9064   24.9311  -77.1475 C.3       3 UNK         0.0250 
     58 CB        -80.7228   23.4492  -77.5215 C.3       3 UNK        -0.1996 
     59 N         -82.2361   25.1408  -76.5907 N.am      3 UNK        -0.4254 
     60 C         -83.3839   25.3589  -77.2412 C.2       2 UNK         0.5004 
     61 O         -83.5079   25.3008  -78.4646 O.2       2 UNK        -0.5226 
     62 CA        -84.5932   25.7356  -76.3602 C.3       2 UNK         0.0269 
     63 CB        -85.4094   24.4846  -75.9971 C.3       2 UNK        -0.1926 
     64 N         -84.1649   26.4119  -75.1285 N.am      2 UNK        -0.4687 
     65 C         -83.7390   27.6839  -75.0834 C.2       1 UNK         0.5165 
     66 O         -83.9311   28.4829  -76.0020 O.2       1 UNK        -0.5079 
     67 H67       -80.8679   24.9573  -72.3902 H         1 UNK         0.0900 
     68 H68       -82.3201   24.1836  -71.7553 H         1 UNK         0.0900 
     69 H69       -81.3698   25.2599  -70.7283 H         1 UNK         0.0900 
     70 H70       -81.3943   26.6103  -73.7994 H         1 UNK         0.2959 
     71 H71       -83.6036   28.5095  -73.1258 H         1 UNK         0.1079 
     72 H72       -81.4216   29.0545  -75.1808 H         1 UNK         0.0837 
     73 H73       -82.4843   30.1797  -74.3985 H         1 UNK         0.0837 
     74 H74       -78.7531   29.6667  -74.4432 H         1 UNK         0.0685 
     75 H75       -79.5011   28.0902  -74.4376 H         1 UNK         0.0685 
     76 H76       -79.5508   27.0777  -71.8052 H         1 UNK         0.1434 
     77 H77       -75.5016   26.8779  -70.4089 H         1 UNK         0.1329 
     78 H78       -76.5211   29.4865  -73.6517 H         1 UNK         0.1335 
     79 H79       -74.0780   28.4898  -73.1882 H         1 UNK         0.0680 
     80 H80       -73.7628   28.0346  -71.5309 H         1 UNK         0.0680 
     81 H81       -71.8526   29.7479  -71.9156 H         1 UNK         0.1032 
     82 H82       -72.0481   31.3725  -71.3207 H         1 UNK         0.1032 
     83 H83       -72.8721   32.0769  -73.6241 H         1 UNK         0.0461 
     84 H84       -69.1425   31.9716  -74.8694 H         1 UNK         0.3453 
     85 H85       -70.4258   30.9791  -75.5165 H         1 UNK         0.3453 
     86 H86       -72.0977   29.3081  -74.3786 H         1 UNK         0.2984 
     87 H87       -74.1603   28.5770  -76.1396 H         1 UNK         0.0554 
     88 H88       -73.8989   28.6901  -78.6241 H         1 UNK         0.0847 
     89 H89       -73.0542   30.2300  -78.4683 H         1 UNK         0.0847 
     90 H90       -74.7425   30.0958  -77.9971 H         1 UNK         0.0847 
     91 H91       -72.3310   27.3586  -76.3560 H         1 UNK         0.3141 
     92 H92       -69.1856   27.7928  -77.7684 H         1 UNK         0.0743 
     93 H93       -69.4871   27.6703  -74.7136 H         1 UNK         0.0784 
     94 H94       -68.0845   27.1267  -75.6361 H         1 UNK         0.0784 
     95 H95       -68.5041   28.8295  -75.5963 H         1 UNK         0.0784 
     96 H96       -70.2377   25.7378  -76.0532 H         1 UNK         0.3213 
     97 H97       -72.4982   24.2784  -78.2055 H         1 UNK         0.0855 
     98 H98       -69.6620   23.1447  -77.9084 H         1 UNK         0.0814 
     99 H99       -70.4904   23.4225  -79.4335 H         1 UNK         0.0814 
    100 H100      -71.1114   22.2230  -78.3144 H         1 UNK         0.0814 
    101 H101      -71.2726   23.0956  -75.9803 H         1 UNK         0.3105 
    102 H102      -72.3798   22.9345  -74.0791 H         1 UNK         0.0547 
    103 H103      -70.6879   24.6397  -73.3761 H         1 UNK         0.0837 
    104 H104      -71.9648   25.7975  -73.0224 H         1 UNK         0.0837 
    105 H105      -71.8107   24.3274  -72.0634 H         1 UNK         0.0837 
    106 H106      -74.4935   24.9923  -73.8925 H         1 UNK         0.3020 
    107 H107      -76.8335   22.6410  -72.9641 H         1 UNK         0.1245 
    108 H108      -75.7716   24.5481  -70.8242 H         1 UNK         0.0781 
    109 H109      -76.1637   22.8682  -70.6250 H         1 UNK         0.0781 
    110 H110      -77.2637   25.7677  -69.1554 H         1 UNK         0.0836 
    111 H111      -78.9344   26.1047  -69.5231 H         1 UNK         0.0836 
    112 H112      -76.8812   25.5253  -73.0441 H         1 UNK         0.3022 
    113 H113      -77.8887   26.5092  -74.7730 H         1 UNK         0.0747 
    114 H114      -76.6895   27.3789  -76.7880 H         1 UNK         0.0793 
    115 H115      -75.5792   26.7506  -75.5833 H         1 UNK         0.0793 
    116 H116      -75.9310   25.8011  -77.0195 H         1 UNK         0.0793 
    117 H117      -78.3653   25.2954  -77.4073 H         1 UNK         0.3047 
    118 H118      -80.7785   25.5624  -78.0293 H         1 UNK         0.0822 
    119 H119      -79.7339   23.2675  -77.9439 H         1 UNK         0.0807 
    120 H120      -81.4541   23.1345  -78.2662 H         1 UNK         0.0807 
    121 H121      -80.8309   22.7996  -76.6518 H         1 UNK         0.0807 
    122 H122      -82.2227   25.2479  -75.5849 H         1 UNK         0.2946 
    123 H123      -85.2299   26.4100  -76.9379 H         1 UNK         0.1144 
    124 H124      -85.7567   23.9728  -76.8958 H         1 UNK         0.0793 
    125 H125      -86.2917   24.7435  -75.4116 H         1 UNK         0.0793 
    126 H126      -84.8213   23.7688  -75.4212 H         1 UNK         0.0793 
    127 H127      -84.0082   25.8332  -74.3156 H         1 UNK         0.2896 
@<TRIPOS>BOND
     1    1    2 1    
     2    1   67 1    
     3    1   68 1    
     4    1   69 1    
     5    2    3 2    
     6    2    4 am   BACKBONE|DICT|INTERRES
     7    4    5 1    
     8    4   70 1    
     9    5    6 1    
    10    5   65 1    
    11    5   71 1    
    12    6    7 1    
    13    6   72 1    
    14    6   73 1    
    15    7    8 1    
    16    8    9 1    
    17    8   74 1    
    18    8   75 1    
    19    9   10 ar   
    20    9   14 ar   
    21   10   11 ar   
    22   10   76 1    
    23   11   12 ar   
    24   11   48 1    
    25   12   13 ar   
    26   12   77 1    
    27   13   14 ar   
    28   13   15 1    
    29   14   78 1    
    30   15   16 1    
    31   15   79 1    
    32   15   80 1    
    33   16   17 1    
    34   17   18 1    
    35   17   81 1    
    36   17   82 1    
    37   18   19 1    
    38   18   22 1    
    39   18   83 1    
    40   19   20 am   BACKBONE|DICT|INTERRES
    41   19   21 2    
    42   20   84 1    
    43   20   85 1    
    44   22   23 am   BACKBONE|DICT|INTERRES
    45   22   86 1    
    46   23   24 2    
    47   23   25 1    
    48   25   26 1    
    49   25   27 1    
    50   25   87 1    
    51   26   88 1    
    52   26   89 1    
    53   26   90 1    
    54   27   28 am   BACKBONE|DICT|INTERRES
    55   27   91 1    
    56   28   29 2    
    57   28   30 1    
    58   30   31 1    
    59   30   32 1    
    60   30   92 1    
    61   31   93 1    
    62   31   94 1    
    63   31   95 1    
    64   32   33 am   BACKBONE|DICT|INTERRES
    65   32   96 1    
    66   33   34 2    
    67   33   35 1    
    68   35   36 1    
    69   35   37 1    
    70   35   97 1    
    71   36   98 1    
    72   36   99 1    
    73   36  100 1    
    74   37   38 am   BACKBONE|DICT|INTERRES
    75   37  101 1    
    76   38   39 2    
    77   38   40 1    
    78   40   41 1    
    79   40   42 1    
    80   40  102 1    
    81   41  103 1    
    82   41  104 1    
    83   41  105 1    
    84   42   43 am   BACKBONE|DICT|INTERRES
    85   42  106 1    
    86   43   44 2    
    87   43   45 1    
    88   45   46 1    
    89   45   49 1    
    90   45  107 1    
    91   46   47 1    
    92   46  108 1    
    93   46  109 1    
    94   47   48 1    
    95   48  110 1    
    96   48  111 1    
    97   49   50 am   BACKBONE|DICT|INTERRES
    98   49  112 1    
    99   50   51 2    
   100   50   52 1    
   101   52   53 1    
   102   52   54 1    
   103   52  113 1    
   104   53  114 1    
   105   53  115 1    
   106   53  116 1    
   107   54   55 am   BACKBONE|DICT|INTERRES
   108   54  117 1    
   109   55   56 2    
   110   55   57 1    
   111   57   58 1    
   112   57   59 1    
   113   57  118 1    
   114   58  119 1    
   115   58  120 1    
   116   58  121 1    
   117   59   60 am   BACKBONE|DICT|INTERRES
   118   59  122 1    
   119   60   61 2    
   120   60   62 1    
   121   62   63 1    
   122   62   64 1    
   123   62  123 1    
   124   63  124 1    
   125   63  125 1    
   126   63  126 1    
   127   64   65 am   BACKBONE|DICT|INTERRES
   128   64  127 1    
   129   65   66 2    
@<TRIPOS>SUBSTRUCTURE
     1 UNK         1 GROUP             0       ****    0 ROOT    
