@<TRIPOS>MOLECULE
3R135
127   129    1
SMALL
USER_CHARGES


@<TRIPOS>ATOM
      1 CA        -80.9569   32.3358  -76.9663 C.3       0 UNK        -0.1998 
      2 C         -80.1402   31.0595  -76.8284 C.2       0 UNK         0.4909 
      3 O         -79.9744   30.3294  -77.8066 O.2       0 UNK        -0.5240 
      4 N         -79.6223   30.7903  -75.6243 N.am      1 UNK        -0.4739 
      5 CA        -78.8728   29.5764  -75.2875 C.3       1 UNK         0.0864 
      6 C6        -77.9952   29.7802  -74.0288 C.3       11 UNK        -0.0881 
      7 S7        -78.8678   30.3588  -72.5322 S.3       11 UNK        -0.2682 
      8 C8        -79.1025   28.8035  -71.5993 C.3       11 UNK         0.0289 
      9 C9        -77.8291   28.1417  -71.0661 C.ar      11 UNK        -0.0687 
     10 C10       -77.8416   26.7622  -70.8248 C.ar      11 UNK        -0.0823 
     11 C11       -76.7251   26.1178  -70.2835 C.ar      11 UNK        -0.0830 
     12 C12       -75.5777   26.8626  -69.9978 C.ar      11 UNK        -0.1021 
     13 C13       -75.5456   28.2412  -70.2276 C.ar      11 UNK        -0.0753 
     14 C14       -76.6759   28.8757  -70.7538 C.ar      11 UNK        -0.0933 
     15 C15       -74.3034   29.0412  -69.8570 C.3       11 UNK         0.0166 
     16 S16       -73.2824   29.4599  -71.3082 S.3       11 UNK        -0.2615 
     17 C17       -73.9023   31.1211  -71.7571 C.3       11 UNK        -0.0865 
     18 CA        -74.4932   31.1796  -73.1967 C.3       10 UNK         0.0862 
     19 C         -75.2256   32.5229  -73.5054 C.2       10 UNK         0.5551 
     20 N         -76.1048   32.9777  -72.6220 N.am      10 UNK        -0.7319 
     21 O         -75.0450   33.1456  -74.5501 O.2       10 UNK        -0.5018 
     22 N         -73.5263   30.7866  -74.2367 N.am      10 UNK        -0.4509 
     23 C         -72.3718   31.4044  -74.5326 C.2       10 UNK         0.4899 
     24 O         -71.9538   32.3988  -73.9377 O.2       10 UNK        -0.4839 
     25 CA        -71.5059   30.8126  -75.6635 C.3       9 UNK         0.0222 
     26 CB        -70.1901   30.2552  -75.0933 C.3       9 UNK        -0.1966 
     27 N         -72.1775   29.7499  -76.4139 N.am      9 UNK        -0.4218 
     28 C         -73.0302   29.9373  -77.4310 C.2       9 UNK         0.5020 
     29 O         -73.2853   31.0371  -77.9224 O.2       9 UNK        -0.5274 
     30 CA        -73.7350   28.6803  -77.9779 C.3       8 UNK         0.0270 
     31 CB        -72.9702   28.1099  -79.1831 C.3       8 UNK        -0.1976 
     32 N         -73.9053   27.6286  -76.9684 N.am      8 UNK        -0.4313 
     33 C         -74.6614   27.7422  -75.8695 C.2       8 UNK         0.5041 
     34 O         -75.3507   28.7313  -75.6187 O.2       8 UNK        -0.5577 
     35 CA        -74.6052   26.5683  -74.8824 C.3       7 UNK         0.0284 
     36 CB        -75.4438   26.8045  -73.6168 C.3       7 UNK        -0.1958 
     37 N         -75.0252   25.3146  -75.5018 N.am      7 UNK        -0.4454 
     38 C         -74.2410   24.5006  -76.2196 C.2       7 UNK         0.5089 
     39 O         -73.0937   24.7934  -76.5631 O.2       7 UNK        -0.5125 
     40 CA        -74.8528   23.1380  -76.6002 C.3       6 UNK         0.0408 
     41 CB        -73.7967   22.0752  -76.9665 C.3       6 UNK        -0.1791 
     42 N         -75.7740   22.6568  -75.5628 N.am      6 UNK        -0.4762 
     43 C         -75.4898   22.3262  -74.2912 C.2       6 UNK         0.5007 
     44 O         -74.3467   22.1842  -73.8567 O.2       6 UNK        -0.5032 
     45 CA        -76.6962   22.1525  -73.3390 C.3       5 UNK         0.0783 
     46 C46       -76.9532   23.4372  -72.5068 C.3       11 UNK        -0.0857 
     47 S47       -75.8016   23.6172  -71.1053 S.3       11 UNK        -0.2512 
     48 C48       -76.7702   24.6327  -69.9438 C.3       11 UNK         0.0225 
     49 N         -77.9040   21.7733  -74.0770 N.am      5 UNK        -0.4615 
     50 C         -78.1800   20.5369  -74.5115 C.2       4 UNK         0.5053 
     51 O         -77.4984   19.5469  -74.2468 O.2       4 UNK        -0.5105 
     52 CA        -79.4192   20.3891  -75.4126 C.3       4 UNK         0.0263 
     53 CB        -80.6734   20.1221  -74.5649 C.3       4 UNK        -0.1981 
     54 N         -79.6433   21.5655  -76.2602 N.am      4 UNK        -0.4224 
     55 C         -78.8522   21.9278  -77.2818 C.2       3 UNK         0.4895 
     56 O         -77.8867   21.2701  -77.6673 O.2       3 UNK        -0.5091 
     57 CA        -79.1652   23.2673  -77.9688 C.3       3 UNK         0.0250 
     58 CB        -80.0907   23.0490  -79.1765 C.3       3 UNK        -0.1996 
     59 N         -79.7622   24.2593  -77.0685 N.am      3 UNK        -0.4254 
     60 C         -79.1130   24.8680  -76.0673 C.2       2 UNK         0.5004 
     61 O         -77.9351   24.6517  -75.7691 O.2       2 UNK        -0.5226 
     62 CA        -79.9131   25.8748  -75.2419 C.3       2 UNK         0.0269 
     63 CB        -80.0750   25.3969  -73.7883 C.3       2 UNK        -0.1926 
     64 N         -79.2082   27.1513  -75.2791 N.am      2 UNK        -0.4687 
     65 C         -79.7964   28.3467  -75.1641 C.2       1 UNK         0.5165 
     66 O         -81.0042   28.4920  -74.9527 O.2       1 UNK        -0.5079 
     67 H67       -81.9741   32.0981  -77.2764 H         1 UNK         0.0900 
     68 H68       -80.5133   32.9859  -77.7199 H         1 UNK         0.0900 
     69 H69       -81.0088   32.8895  -76.0289 H         1 UNK         0.0900 
     70 H70       -79.8165   31.4015  -74.8436 H         1 UNK         0.2959 
     71 H71       -78.1941   29.3734  -76.1200 H         1 UNK         0.1079 
     72 H72       -77.4272   28.8808  -73.7964 H         1 UNK         0.0837 
     73 H73       -77.2493   30.5345  -74.2724 H         1 UNK         0.0837 
     74 H74       -79.7519   29.0156  -70.7493 H         1 UNK         0.0685 
     75 H75       -79.6491   28.1032  -72.2311 H         1 UNK         0.0685 
     76 H76       -78.7364   26.1917  -71.0314 H         1 UNK         0.1434 
     77 H77       -74.7139   26.3669  -69.5761 H         1 UNK         0.1329 
     78 H78       -76.6560   29.9444  -70.9065 H         1 UNK         0.1335 
     79 H79       -74.5856   29.9405  -69.3083 H         1 UNK         0.0680 
     80 H80       -73.6844   28.4637  -69.1686 H         1 UNK         0.0680 
     81 H81       -73.0849   31.8348  -71.6471 H         1 UNK         0.1032 
     82 H82       -74.6474   31.4257  -71.0229 H         1 UNK         0.1032 
     83 H83       -75.2656   30.4142  -73.2476 H         1 UNK         0.0461 
     84 H84       -76.5916   33.8366  -72.8242 H         1 UNK         0.3453 
     85 H85       -76.3194   32.4734  -71.7777 H         1 UNK         0.3453 
     86 H86       -73.8362   30.0249  -74.8267 H         1 UNK         0.2984 
     87 H87       -71.2603   31.6281  -76.3471 H         1 UNK         0.0554 
     88 H88       -69.5434   29.8733  -75.8835 H         1 UNK         0.0847 
     89 H89       -70.3676   29.4474  -74.3819 H         1 UNK         0.0847 
     90 H90       -69.6311   31.0315  -74.5689 H         1 UNK         0.0847 
     91 H91       -72.0237   28.8048  -76.0941 H         1 UNK         0.3141 
     92 H92       -74.7292   28.9834  -78.3136 H         1 UNK         0.0743 
     93 H93       -71.9729   27.7671  -78.9043 H         1 UNK         0.0784 
     94 H94       -73.5022   27.2691  -79.6288 H         1 UNK         0.0784 
     95 H95       -72.8501   28.8648  -79.9615 H         1 UNK         0.0784 
     96 H96       -73.3920   26.7616  -77.0977 H         1 UNK         0.3213 
     97 H97       -73.5643   26.4770  -74.5638 H         1 UNK         0.0855 
     98 H98       -76.5133   26.7647  -73.8202 H         1 UNK         0.0814 
     99 H99       -75.2244   27.7743  -73.1688 H         1 UNK         0.0814 
    100 H100      -75.2199   26.0543  -72.8599 H         1 UNK         0.0814 
    101 H101      -75.9924   25.0361  -75.3670 H         1 UNK         0.3105 
    102 H102      -75.4639   23.3151  -77.4863 H         1 UNK         0.0547 
    103 H103      -73.2209   22.3853  -77.8392 H         1 UNK         0.0837 
    104 H104      -73.0870   21.9078  -76.1562 H         1 UNK         0.0837 
    105 H105      -74.2637   21.1207  -77.2088 H         1 UNK         0.0837 
    106 H106      -76.7529   22.7669  -75.7932 H         1 UNK         0.3020 
    107 H107      -76.4518   21.3372  -72.6534 H         1 UNK         0.1245 
    108 H108      -77.9626   23.4053  -72.0941 H         1 UNK         0.0781 
    109 H109      -76.9136   24.3326  -73.1280 H         1 UNK         0.0781 
    110 H110      -76.3628   24.4900  -68.9418 H         1 UNK         0.0836 
    111 H111      -77.7985   24.2712  -69.8982 H         1 UNK         0.0836 
    112 H112      -78.5182   22.5267  -74.3463 H         1 UNK         0.3022 
    113 H113      -79.2549   19.5270  -76.0629 H         1 UNK         0.0747 
    114 H114      -81.5463   19.9436  -75.1933 H         1 UNK         0.0793 
    115 H115      -80.5401   19.2373  -73.9407 H         1 UNK         0.0793 
    116 H116      -80.9013   20.9573  -73.9013 H         1 UNK         0.0793 
    117 H117      -80.4322   22.1525  -76.0317 H         1 UNK         0.3047 
    118 H118      -78.2192   23.6736  -78.3344 H         1 UNK         0.0822 
    119 H119      -80.2518   23.9767  -79.7261 H         1 UNK         0.0807 
    120 H120      -81.0653   22.6616  -78.8767 H         1 UNK         0.0807 
    121 H121      -79.6568   22.3327  -79.8759 H         1 UNK         0.0807 
    122 H122      -80.7263   24.5033  -77.2468 H         1 UNK         0.2946 
    123 H123      -80.9038   25.9912  -75.6881 H         1 UNK         0.1144 
    124 H124      -80.5282   24.4057  -73.7456 H         1 UNK         0.0793 
    125 H125      -80.7188   26.0693  -73.2214 H         1 UNK         0.0793 
    126 H126      -79.1150   25.3447  -73.2765 H         1 UNK         0.0793 
    127 H127      -78.2177   27.0889  -75.4753 H         1 UNK         0.2896 
@<TRIPOS>BOND
     1    1    2 1    
     2    1   67 1    
     3    1   68 1    
     4    1   69 1    
     5    2    3 2    
     6    2    4 am   BACKBONE|DICT|INTERRES
     7    4    5 1    
     8    4   70 1    
     9    5    6 1    
    10    5   65 1    
    11    5   71 1    
    12    6    7 1    
    13    6   72 1    
    14    6   73 1    
    15    7    8 1    
    16    8    9 1    
    17    8   74 1    
    18    8   75 1    
    19    9   10 ar   
    20    9   14 ar   
    21   10   11 ar   
    22   10   76 1    
    23   11   12 ar   
    24   11   48 1    
    25   12   13 ar   
    26   12   77 1    
    27   13   14 ar   
    28   13   15 1    
    29   14   78 1    
    30   15   16 1    
    31   15   79 1    
    32   15   80 1    
    33   16   17 1    
    34   17   18 1    
    35   17   81 1    
    36   17   82 1    
    37   18   19 1    
    38   18   22 1    
    39   18   83 1    
    40   19   20 am   BACKBONE|DICT|INTERRES
    41   19   21 2    
    42   20   84 1    
    43   20   85 1    
    44   22   23 am   BACKBONE|DICT|INTERRES
    45   22   86 1    
    46   23   24 2    
    47   23   25 1    
    48   25   26 1    
    49   25   27 1    
    50   25   87 1    
    51   26   88 1    
    52   26   89 1    
    53   26   90 1    
    54   27   28 am   BACKBONE|DICT|INTERRES
    55   27   91 1    
    56   28   29 2    
    57   28   30 1    
    58   30   31 1    
    59   30   32 1    
    60   30   92 1    
    61   31   93 1    
    62   31   94 1    
    63   31   95 1    
    64   32   33 am   BACKBONE|DICT|INTERRES
    65   32   96 1    
    66   33   34 2    
    67   33   35 1    
    68   35   36 1    
    69   35   37 1    
    70   35   97 1    
    71   36   98 1    
    72   36   99 1    
    73   36  100 1    
    74   37   38 am   BACKBONE|DICT|INTERRES
    75   37  101 1    
    76   38   39 2    
    77   38   40 1    
    78   40   41 1    
    79   40   42 1    
    80   40  102 1    
    81   41  103 1    
    82   41  104 1    
    83   41  105 1    
    84   42   43 am   BACKBONE|DICT|INTERRES
    85   42  106 1    
    86   43   44 2    
    87   43   45 1    
    88   45   46 1    
    89   45   49 1    
    90   45  107 1    
    91   46   47 1    
    92   46  108 1    
    93   46  109 1    
    94   47   48 1    
    95   48  110 1    
    96   48  111 1    
    97   49   50 am   BACKBONE|DICT|INTERRES
    98   49  112 1    
    99   50   51 2    
   100   50   52 1    
   101   52   53 1    
   102   52   54 1    
   103   52  113 1    
   104   53  114 1    
   105   53  115 1    
   106   53  116 1    
   107   54   55 am   BACKBONE|DICT|INTERRES
   108   54  117 1    
   109   55   56 2    
   110   55   57 1    
   111   57   58 1    
   112   57   59 1    
   113   57  118 1    
   114   58  119 1    
   115   58  120 1    
   116   58  121 1    
   117   59   60 am   BACKBONE|DICT|INTERRES
   118   59  122 1    
   119   60   61 2    
   120   60   62 1    
   121   62   63 1    
   122   62   64 1    
   123   62  123 1    
   124   63  124 1    
   125   63  125 1    
   126   63  126 1    
   127   64   65 am   BACKBONE|DICT|INTERRES
   128   64  127 1    
   129   65   66 2    
@<TRIPOS>SUBSTRUCTURE
     1 UNK         1 GROUP             0       ****    0 ROOT    
