@<TRIPOS>MOLECULE
3R135
127   129    1
SMALL
USER_CHARGES


@<TRIPOS>ATOM
      1 CA        -81.7800   22.8436  -68.9048 C.3       0 UNK        -0.1998 
      2 C         -82.1755   23.8029  -70.0175 C.2       0 UNK         0.4909 
      3 O         -83.2113   23.6082  -70.6551 O.2       0 UNK        -0.5240 
      4 N         -81.3647   24.8428  -70.2471 N.am      1 UNK        -0.4739 
      5 CA        -81.5322   25.8233  -71.3244 C.3       1 UNK         0.0864 
      6 C6        -80.7198   27.1222  -71.0710 C.3       11 UNK        -0.0881 
      7 S7        -79.0187   26.8677  -70.4466 S.3       11 UNK        -0.2682 
      8 C8        -78.0192   27.1497  -71.9355 C.3       11 UNK         0.0289 
      9 C9        -77.9361   28.6179  -72.3133 C.ar      11 UNK        -0.0687 
     10 C10       -78.6990   29.1043  -73.3759 C.ar      11 UNK        -0.0823 
     11 C11       -78.5778   30.4326  -73.7891 C.ar      11 UNK        -0.0830 
     12 C12       -77.7096   31.2875  -73.1039 C.ar      11 UNK        -0.1021 
     13 C13       -76.9603   30.8190  -72.0192 C.ar      11 UNK        -0.0753 
     14 C14       -77.0725   29.4800  -71.6317 C.ar      11 UNK        -0.0933 
     15 C15       -76.0442   31.7697  -71.2639 C.3       11 UNK         0.0166 
     16 S16       -74.4160   31.9140  -72.0611 S.3       11 UNK        -0.2615 
     17 C17       -73.4914   30.5611  -71.2564 C.3       11 UNK        -0.0865 
     18 CA        -72.2227   30.1713  -72.0614 C.3       10 UNK         0.0862 
     19 C         -71.2462   29.2786  -71.2373 C.2       10 UNK         0.5551 
     20 N         -70.6466   28.2367  -71.8022 N.am      10 UNK        -0.7319 
     21 O         -71.0128   29.5430  -70.0604 O.2       10 UNK        -0.5018 
     22 N         -72.5813   29.5945  -73.3663 N.am      10 UNK        -0.4509 
     23 C         -71.9417   29.8259  -74.5172 C.2       10 UNK         0.4899 
     24 O         -71.0042   30.6160  -74.6417 O.2       10 UNK        -0.4839 
     25 CA        -72.4317   28.9984  -75.7206 C.3       9 UNK         0.0222 
     26 CB        -71.5582   29.1809  -76.9791 C.3       9 UNK        -0.1966 
     27 N         -72.5865   27.5712  -75.4070 N.am      9 UNK        -0.4218 
     28 C         -71.6475   26.7366  -74.9309 C.2       9 UNK         0.5020 
     29 O         -70.5064   27.0832  -74.6247 O.2       9 UNK        -0.5274 
     30 CA        -72.0443   25.2642  -74.7604 C.3       8 UNK         0.0270 
     31 CB        -72.7467   25.0429  -73.4092 C.3       8 UNK        -0.1976 
     32 N         -72.9080   24.8244  -75.8614 N.am      8 UNK        -0.4313 
     33 C         -72.5004   24.0457  -76.8730 C.2       8 UNK         0.5041 
     34 O         -71.3720   23.5566  -76.9487 O.2       8 UNK        -0.5577 
     35 CA        -73.5057   23.7485  -77.9990 C.3       7 UNK         0.0284 
     36 CB        -74.3078   22.4705  -77.7019 C.3       7 UNK        -0.1958 
     37 N         -74.4212   24.8527  -78.3028 N.am      7 UNK        -0.4454 
     38 C         -74.0548   25.9685  -78.9523 C.2       7 UNK         0.5089 
     39 O         -72.8906   26.2370  -79.2484 O.2       7 UNK        -0.5125 
     40 CA        -75.1729   26.9349  -79.3705 C.3       6 UNK         0.0408 
     41 CB        -75.9262   26.3871  -80.5938 C.3       6 UNK        -0.1791 
     42 N         -76.1196   27.1536  -78.2794 N.am      6 UNK        -0.4762 
     43 C         -76.1485   28.2445  -77.4996 C.2       6 UNK         0.5007 
     44 O         -75.4214   29.2234  -77.6666 O.2       6 UNK        -0.5032 
     45 CA        -77.1443   28.2297  -76.3157 C.3       5 UNK         0.0783 
     46 C46       -78.4915   28.8843  -76.7279 C.3       11 UNK        -0.0857 
     47 S47       -78.4719   30.7011  -76.5456 S.3       11 UNK        -0.2512 
     48 C48       -79.3774   30.9366  -74.9814 C.3       11 UNK         0.0225 
     49 N         -77.3386   26.8846  -75.7503 N.am      5 UNK        -0.4615 
     50 C         -76.3512   26.1082  -75.2732 C.2       4 UNK         0.5053 
     51 O         -75.1908   26.4972  -75.1478 O.2       4 UNK        -0.5105 
     52 CA        -76.6509   24.6197  -74.9984 C.3       4 UNK         0.0263 
     53 CB        -76.6872   24.2834  -73.5002 C.3       4 UNK        -0.1981 
     54 N         -77.8599   24.1193  -75.6541 N.am      4 UNK        -0.4224 
     55 C         -78.0533   24.1004  -76.9804 C.2       3 UNK         0.4895 
     56 O         -77.1814   24.4082  -77.7958 O.2       3 UNK        -0.5091 
     57 CA        -79.4587   23.7447  -77.4918 C.3       3 UNK         0.0250 
     58 CB        -79.4774   22.3018  -78.0205 C.3       3 UNK        -0.1996 
     59 N         -80.5552   23.9198  -76.5286 N.am      3 UNK        -0.4254 
     60 C         -80.8754   25.0373  -75.8558 C.2       2 UNK         0.5004 
     61 O         -80.1985   26.0675  -75.8765 O.2       2 UNK        -0.5226 
     62 CA        -82.1878   25.0137  -75.0447 C.3       2 UNK         0.0269 
     63 CB        -82.8496   23.6180  -74.9501 C.3       2 UNK        -0.1926 
     64 N         -82.0664   25.5993  -73.7030 N.am      2 UNK        -0.4687 
     65 C         -81.2616   25.1915  -72.7099 C.2       1 UNK         0.5165 
     66 O         -80.3753   24.3427  -72.8424 O.2       1 UNK        -0.5079 
     67 H67       -82.5626   22.8034  -68.1477 H         1 UNK         0.0900 
     68 H68       -81.6417   21.8403  -69.3068 H         1 UNK         0.0900 
     69 H69       -80.8523   23.1448  -68.4182 H         1 UNK         0.0900 
     70 H70       -80.5108   24.9429  -69.7158 H         1 UNK         0.2959 
     71 H71       -82.5871   26.1085  -71.3159 H         1 UNK         0.1079 
     72 H72       -80.7127   27.7598  -71.9554 H         1 UNK         0.0837 
     73 H73       -81.2372   27.7090  -70.3105 H         1 UNK         0.0837 
     74 H74       -77.0134   26.7636  -71.7658 H         1 UNK         0.0685 
     75 H75       -78.4406   26.5758  -72.7606 H         1 UNK         0.0685 
     76 H76       -79.3693   28.4363  -73.8981 H         1 UNK         0.1434 
     77 H77       -77.6128   32.3185  -73.4165 H         1 UNK         0.1329 
     78 H78       -76.4912   29.1062  -70.8002 H         1 UNK         0.1335 
     79 H79       -76.5014   32.7597  -71.2260 H         1 UNK         0.0680 
     80 H80       -75.9266   31.4528  -70.2264 H         1 UNK         0.0680 
     81 H81       -73.2297   30.9029  -70.2532 H         1 UNK         0.1032 
     82 H82       -74.1385   29.6932  -71.1246 H         1 UNK         0.1032 
     83 H83       -71.6646   31.0937  -72.2319 H         1 UNK         0.0461 
     84 H84       -70.0144   27.6806  -71.2491 H         1 UNK         0.3453 
     85 H85       -70.7623   28.0326  -72.7871 H         1 UNK         0.3453 
     86 H86       -73.3272   28.9150  -73.3590 H         1 UNK         0.2984 
     87 H87       -73.4287   29.3719  -75.9534 H         1 UNK         0.0554 
     88 H88       -71.5168   30.2289  -77.2782 H         1 UNK         0.0847 
     89 H89       -71.9611   28.6203  -77.8229 H         1 UNK         0.0847 
     90 H90       -70.5333   28.8475  -76.8126 H         1 UNK         0.0847 
     91 H91       -73.5306   27.2047  -75.5065 H         1 UNK         0.3141 
     92 H92       -71.1233   24.6776  -74.7470 H         1 UNK         0.0743 
     93 H93       -73.6200   25.6819  -73.2852 H         1 UNK         0.0784 
     94 H94       -73.0685   24.0078  -73.2939 H         1 UNK         0.0784 
     95 H95       -72.0695   25.2656  -72.5835 H         1 UNK         0.0784 
     96 H96       -73.8402   25.2200  -75.8861 H         1 UNK         0.3213 
     97 H97       -72.9193   23.5572  -78.9009 H         1 UNK         0.0855 
     98 H98       -74.9207   22.5645  -76.8074 H         1 UNK         0.0814 
     99 H99       -73.6402   21.6218  -77.5472 H         1 UNK         0.0814 
    100 H100      -74.9669   22.2147  -78.5317 H         1 UNK         0.0814 
    101 H101      -75.4110   24.6894  -78.1275 H         1 UNK         0.3105 
    102 H102      -74.7060   27.8776  -79.6637 H         1 UNK         0.0547 
    103 H103      -75.2425   26.2072  -81.4246 H         1 UNK         0.0837 
    104 H104      -76.4300   25.4446  -80.3755 H         1 UNK         0.0837 
    105 H105      -76.6788   27.0944  -80.9423 H         1 UNK         0.0837 
    106 H106      -76.7298   26.3759  -78.0519 H         1 UNK         0.3020 
    107 H107      -76.6909   28.8244  -75.5189 H         1 UNK         0.1245 
    108 H108      -79.3148   28.4960  -76.1310 H         1 UNK         0.0781 
    109 H109      -78.7605   28.6358  -77.7567 H         1 UNK         0.0781 
    110 H110      -80.3449   30.4347  -75.0345 H         1 UNK         0.0836 
    111 H111      -79.5955   31.9985  -74.8583 H         1 UNK         0.0836 
    112 H112      -78.2773   26.5003  -75.8204 H         1 UNK         0.3022 
    113 H113      -75.8074   24.0739  -75.4187 H         1 UNK         0.0747 
    114 H114      -76.5177   23.2184  -73.3410 H         1 UNK         0.0793 
    115 H115      -75.9112   24.8150  -72.9484 H         1 UNK         0.0793 
    116 H116      -77.6465   24.5242  -73.0465 H         1 UNK         0.0793 
    117 H117      -78.6385   23.8800  -75.0551 H         1 UNK         0.3047 
    118 H118      -79.6624   24.4161  -78.3283 H         1 UNK         0.0822 
    119 H119      -80.4243   22.0679  -78.5074 H         1 UNK         0.0807 
    120 H120      -79.3213   21.5770  -77.2204 H         1 UNK         0.0807 
    121 H121      -78.6902   22.1450  -78.7598 H         1 UNK         0.0807 
    122 H122      -81.1722   23.1276  -76.4213 H         1 UNK         0.2946 
    123 H123      -82.8734   25.6607  -75.5946 H         1 UNK         0.1144 
    124 H124      -83.7791   23.6655  -74.3822 H         1 UNK         0.0793 
    125 H125      -82.2040   22.8906  -74.4557 H         1 UNK         0.0793 
    126 H126      -83.1074   23.2267  -75.9352 H         1 UNK         0.0793 
    127 H127      -82.7240   26.3410  -73.5051 H         1 UNK         0.2896 
@<TRIPOS>BOND
     1    1    2 1    
     2    1   67 1    
     3    1   68 1    
     4    1   69 1    
     5    2    3 2    
     6    2    4 am   BACKBONE|DICT|INTERRES
     7    4    5 1    
     8    4   70 1    
     9    5    6 1    
    10    5   65 1    
    11    5   71 1    
    12    6    7 1    
    13    6   72 1    
    14    6   73 1    
    15    7    8 1    
    16    8    9 1    
    17    8   74 1    
    18    8   75 1    
    19    9   10 ar   
    20    9   14 ar   
    21   10   11 ar   
    22   10   76 1    
    23   11   12 ar   
    24   11   48 1    
    25   12   13 ar   
    26   12   77 1    
    27   13   14 ar   
    28   13   15 1    
    29   14   78 1    
    30   15   16 1    
    31   15   79 1    
    32   15   80 1    
    33   16   17 1    
    34   17   18 1    
    35   17   81 1    
    36   17   82 1    
    37   18   19 1    
    38   18   22 1    
    39   18   83 1    
    40   19   20 am   BACKBONE|DICT|INTERRES
    41   19   21 2    
    42   20   84 1    
    43   20   85 1    
    44   22   23 am   BACKBONE|DICT|INTERRES
    45   22   86 1    
    46   23   24 2    
    47   23   25 1    
    48   25   26 1    
    49   25   27 1    
    50   25   87 1    
    51   26   88 1    
    52   26   89 1    
    53   26   90 1    
    54   27   28 am   BACKBONE|DICT|INTERRES
    55   27   91 1    
    56   28   29 2    
    57   28   30 1    
    58   30   31 1    
    59   30   32 1    
    60   30   92 1    
    61   31   93 1    
    62   31   94 1    
    63   31   95 1    
    64   32   33 am   BACKBONE|DICT|INTERRES
    65   32   96 1    
    66   33   34 2    
    67   33   35 1    
    68   35   36 1    
    69   35   37 1    
    70   35   97 1    
    71   36   98 1    
    72   36   99 1    
    73   36  100 1    
    74   37   38 am   BACKBONE|DICT|INTERRES
    75   37  101 1    
    76   38   39 2    
    77   38   40 1    
    78   40   41 1    
    79   40   42 1    
    80   40  102 1    
    81   41  103 1    
    82   41  104 1    
    83   41  105 1    
    84   42   43 am   BACKBONE|DICT|INTERRES
    85   42  106 1    
    86   43   44 2    
    87   43   45 1    
    88   45   46 1    
    89   45   49 1    
    90   45  107 1    
    91   46   47 1    
    92   46  108 1    
    93   46  109 1    
    94   47   48 1    
    95   48  110 1    
    96   48  111 1    
    97   49   50 am   BACKBONE|DICT|INTERRES
    98   49  112 1    
    99   50   51 2    
   100   50   52 1    
   101   52   53 1    
   102   52   54 1    
   103   52  113 1    
   104   53  114 1    
   105   53  115 1    
   106   53  116 1    
   107   54   55 am   BACKBONE|DICT|INTERRES
   108   54  117 1    
   109   55   56 2    
   110   55   57 1    
   111   57   58 1    
   112   57   59 1    
   113   57  118 1    
   114   58  119 1    
   115   58  120 1    
   116   58  121 1    
   117   59   60 am   BACKBONE|DICT|INTERRES
   118   59  122 1    
   119   60   61 2    
   120   60   62 1    
   121   62   63 1    
   122   62   64 1    
   123   62  123 1    
   124   63  124 1    
   125   63  125 1    
   126   63  126 1    
   127   64   65 am   BACKBONE|DICT|INTERRES
   128   64  127 1    
   129   65   66 2    
@<TRIPOS>SUBSTRUCTURE
     1 UNK         1 GROUP             0       ****    0 ROOT    
