@<TRIPOS>MOLECULE
3R135
127   129    1
SMALL
USER_CHARGES


@<TRIPOS>ATOM
      1 CA        -86.4825   28.6602  -72.5228 C.3       0 UNK        -0.1998 
      2 C         -85.3034   28.8871  -73.4574 C.2       0 UNK         0.4909 
      3 O         -85.4979   29.3244  -74.5925 O.2       0 UNK        -0.5240 
      4 N         -84.0827   28.6019  -72.9863 N.am      1 UNK        -0.4739 
      5 CA        -82.8456   28.6880  -73.7710 C.3       1 UNK         0.0864 
      6 C6        -81.6042   28.8326  -72.8503 C.3       11 UNK        -0.0881 
      7 S7        -80.3231   29.8996  -73.5921 S.3       11 UNK        -0.2682 
      8 C8        -79.2214   30.1790  -72.1698 C.3       11 UNK         0.0289 
      9 C9        -78.1334   29.1186  -72.0789 C.ar      11 UNK        -0.0687 
     10 C10       -78.3974   27.8775  -71.4896 C.ar      11 UNK        -0.0823 
     11 C11       -77.3942   26.9075  -71.3925 C.ar      11 UNK        -0.0830 
     12 C12       -76.1136   27.1990  -71.8684 C.ar      11 UNK        -0.1021 
     13 C13       -75.8413   28.4282  -72.4731 C.ar      11 UNK        -0.0753 
     14 C14       -76.8538   29.3853  -72.5765 C.ar      11 UNK        -0.0933 
     15 C15       -74.4614   28.6949  -73.0478 C.3       11 UNK         0.0166 
     16 S16       -73.3078   29.3215  -71.7872 S.3       11 UNK        -0.2615 
     17 C17       -73.3197   31.1153  -72.1450 C.3       11 UNK        -0.0865 
     18 CA        -72.1657   31.5606  -73.0859 C.3       10 UNK         0.0862 
     19 C         -70.7878   31.6055  -72.3584 C.2       10 UNK         0.5551 
     20 N         -69.7767   30.8543  -72.7811 N.am      10 UNK        -0.7319 
     21 O         -70.6309   32.3535  -71.3963 O.2       10 UNK        -0.5018 
     22 N         -72.1771   30.7827  -74.3313 N.am      10 UNK        -0.4509 
     23 C         -71.6491   31.1548  -75.5006 C.2       10 UNK         0.4899 
     24 O         -71.1700   32.2698  -75.7123 O.2       10 UNK        -0.4839 
     25 CA        -71.6675   30.0903  -76.6176 C.3       9 UNK         0.0222 
     26 CB        -70.5757   30.3311  -77.6812 C.3       9 UNK        -0.1966 
     27 N         -71.6110   28.7027  -76.1279 N.am      9 UNK        -0.4218 
     28 C         -70.6378   28.1419  -75.3867 C.2       9 UNK         0.5020 
     29 O         -69.6811   28.7739  -74.9359 O.2       9 UNK        -0.5274 
     30 CA        -70.7378   26.6344  -75.0676 C.3       8 UNK         0.0270 
     31 CB        -70.9933   26.4097  -73.5679 C.3       8 UNK        -0.1976 
     32 N         -71.7612   25.9270  -75.8430 N.am      8 UNK        -0.4313 
     33 C         -71.6753   25.6657  -77.1573 C.2       8 UNK         0.5041 
     34 O         -70.6673   25.8904  -77.8280 O.2       8 UNK        -0.5577 
     35 CA        -72.9233   25.0944  -77.8615 C.3       7 UNK         0.0284 
     36 CB        -72.7438   23.5925  -78.1336 C.3       7 UNK        -0.1958 
     37 N         -74.1798   25.3038  -77.1344 N.am      7 UNK        -0.4454 
     38 C         -74.6968   26.4930  -76.7882 C.2       7 UNK         0.5089 
     39 O         -74.1876   27.5718  -77.0950 O.2       7 UNK        -0.5125 
     40 CA        -75.9478   26.4846  -75.8897 C.3       6 UNK         0.0408 
     41 CB        -77.2057   26.7958  -76.7124 C.3       6 UNK        -0.1791 
     42 N         -76.1448   25.2429  -75.1301 N.am      6 UNK        -0.4762 
     43 C         -75.2762   24.7308  -74.2415 C.2       6 UNK         0.5007 
     44 O         -74.1859   25.2447  -73.9857 O.2       6 UNK        -0.5032 
     45 CA        -75.6406   23.3891  -73.5734 C.3       5 UNK         0.0783 
     46 C46       -76.1860   23.5636  -72.1336 C.3       11 UNK        -0.0857 
     47 S47       -77.8812   24.2441  -72.0271 S.3       11 UNK        -0.2512 
     48 C48       -77.6944   25.5517  -70.7681 C.3       11 UNK         0.0225 
     49 N         -76.5054   22.5428  -74.4017 N.am      5 UNK        -0.4615 
     50 C         -76.1339   21.9818  -75.5608 C.2       4 UNK         0.5053 
     51 O         -75.0217   22.1353  -76.0649 O.2       4 UNK        -0.5105 
     52 CA        -77.1715   21.1079  -76.2861 C.3       4 UNK         0.0263 
     53 CB        -76.9760   19.6287  -75.9165 C.3       4 UNK        -0.1981 
     54 N         -78.5612   21.4946  -76.0216 N.am      4 UNK        -0.4224 
     55 C         -79.1178   22.6445  -76.4259 C.2       3 UNK         0.4895 
     56 O         -78.5045   23.5017  -77.0663 O.2       3 UNK        -0.5091 
     57 CA        -80.6109   22.8341  -76.0879 C.3       3 UNK         0.0250 
     58 CB        -80.9239   22.5483  -74.6008 C.3       3 UNK        -0.1996 
     59 N         -81.1240   24.1503  -76.4938 N.am      3 UNK        -0.4254 
     60 C         -80.7953   25.3493  -75.9887 C.2       2 UNK         0.5004 
     61 O         -80.0363   25.5109  -75.0312 O.2       2 UNK        -0.5226 
     62 CA        -81.3964   26.5932  -76.6802 C.3       2 UNK         0.0269 
     63 CB        -82.5502   26.2875  -77.6645 C.3       2 UNK        -0.1926 
     64 N         -81.8016   27.6175  -75.7093 N.am      2 UNK        -0.4687 
     65 C         -82.7042   27.4822  -74.7268 C.2       1 UNK         0.5165 
     66 O         -83.3802   26.4646  -74.5452 O.2       1 UNK        -0.5079 
     67 H67       -86.1650   28.2919  -71.5473 H         1 UNK         0.0900 
     68 H68       -87.0272   29.5920  -72.3722 H         1 UNK         0.0900 
     69 H69       -87.1673   27.9304  -72.9542 H         1 UNK         0.0900 
     70 H70       -83.9897   28.2077  -72.0612 H         1 UNK         0.2959 
     71 H71       -82.9287   29.5837  -74.3918 H         1 UNK         0.1079 
     72 H72       -81.1755   27.8619  -72.5935 H         1 UNK         0.0837 
     73 H73       -81.8923   29.2922  -71.9033 H         1 UNK         0.0837 
     74 H74       -78.7694   31.1666  -72.2740 H         1 UNK         0.0685 
     75 H75       -79.7954   30.2106  -71.2427 H         1 UNK         0.0685 
     76 H76       -79.3859   27.6661  -71.1073 H         1 UNK         0.1434 
     77 H77       -75.3267   26.4631  -71.7880 H         1 UNK         0.1329 
     78 H78       -76.6467   30.3375  -73.0452 H         1 UNK         0.1335 
     79 H79       -74.5333   29.3835  -73.8905 H         1 UNK         0.0680 
     80 H80       -74.0562   27.7719  -73.4589 H         1 UNK         0.0680 
     81 H81       -73.2787   31.6588  -71.1991 H         1 UNK         0.1032 
     82 H82       -74.2797   31.3881  -72.5853 H         1 UNK         0.1032 
     83 H83       -72.3719   32.5970  -73.3600 H         1 UNK         0.0461 
     84 H84       -68.8939   30.9051  -72.2989 H         1 UNK         0.3453 
     85 H85       -69.8797   30.2286  -73.5730 H         1 UNK         0.3453 
     86 H86       -72.5055   29.8338  -74.2407 H         1 UNK         0.2984 
     87 H87       -72.6349   30.1921  -77.1115 H         1 UNK         0.0554 
     88 H88       -70.6190   29.5807  -78.4706 H         1 UNK         0.0847 
     89 H89       -69.5758   30.3031  -77.2467 H         1 UNK         0.0847 
     90 H90       -70.6966   31.3054  -78.1561 H         1 UNK         0.0847 
     91 H91       -72.3834   28.1156  -76.4314 H         1 UNK         0.3141 
     92 H92       -69.7682   26.1952  -75.3114 H         1 UNK         0.0743 
     93 H93       -70.9880   25.3483  -73.3194 H         1 UNK         0.0784 
     94 H94       -70.2218   26.8872  -72.9622 H         1 UNK         0.0784 
     95 H95       -71.9517   26.8198  -73.2527 H         1 UNK         0.0784 
     96 H96       -72.6173   25.6880  -75.3521 H         1 UNK         0.3213 
     97 H97       -73.0138   25.6092  -78.8202 H         1 UNK         0.0855 
     98 H98       -71.8459   23.4067  -78.7247 H         1 UNK         0.0814 
     99 H99       -73.5874   23.1838  -78.6901 H         1 UNK         0.0814 
    100 H100      -72.6469   23.0249  -77.2072 H         1 UNK         0.0814 
    101 H101      -74.6569   24.4715  -76.8123 H         1 UNK         0.3105 
    102 H102      -75.8222   27.2892  -75.1649 H         1 UNK         0.0547 
    103 H103      -78.0648   26.9603  -76.0632 H         1 UNK         0.0837 
    104 H104      -77.4495   25.9875  -77.4024 H         1 UNK         0.0837 
    105 H105      -77.0745   27.7033  -77.3035 H         1 UNK         0.0837 
    106 H106      -77.0131   24.7484  -75.2907 H         1 UNK         0.3020 
    107 H107      -74.6916   22.8549  -73.4804 H         1 UNK         0.1245 
    108 H108      -75.4965   24.1676  -71.5424 H         1 UNK         0.0781 
    109 H109      -76.2014   22.5907  -71.6401 H         1 UNK         0.0781 
    110 H110      -76.9160   25.2860  -70.0515 H         1 UNK         0.0836 
    111 H111      -78.6198   25.6035  -70.1924 H         1 UNK         0.0836 
    112 H112      -77.4422   22.3894  -74.0584 H         1 UNK         0.3022 
    113 H113      -76.9927   21.2169  -77.3582 H         1 UNK         0.0747 
    114 H114      -77.6418   18.9840  -76.4905 H         1 UNK         0.0793 
    115 H115      -75.9554   19.3058  -76.1276 H         1 UNK         0.0793 
    116 H116      -77.1619   19.4480  -74.8569 H         1 UNK         0.0793 
    117 H117      -79.1288   20.8288  -75.5171 H         1 UNK         0.3047 
    118 H118      -81.1566   22.1058  -76.6898 H         1 UNK         0.0822 
    119 H119      -80.2935   23.1347  -73.9311 H         1 UNK         0.0807 
    120 H120      -80.7712   21.4977  -74.3530 H         1 UNK         0.0807 
    121 H121      -81.9624   22.7809  -74.3646 H         1 UNK         0.0807 
    122 H122      -81.7394   24.1411  -77.2946 H         1 UNK         0.2946 
    123 H123      -80.5793   27.0285  -77.2579 H         1 UNK         0.1144 
    124 H124      -82.2112   25.6700  -78.4971 H         1 UNK         0.0793 
    125 H125      -83.3782   25.7696  -77.1787 H         1 UNK         0.0793 
    126 H126      -82.9472   27.2057  -78.0978 H         1 UNK         0.0793 
    127 H127      -81.2539   28.4676  -75.7239 H         1 UNK         0.2896 
@<TRIPOS>BOND
     1    1    2 1    
     2    1   67 1    
     3    1   68 1    
     4    1   69 1    
     5    2    3 2    
     6    2    4 am   BACKBONE|DICT|INTERRES
     7    4    5 1    
     8    4   70 1    
     9    5    6 1    
    10    5   65 1    
    11    5   71 1    
    12    6    7 1    
    13    6   72 1    
    14    6   73 1    
    15    7    8 1    
    16    8    9 1    
    17    8   74 1    
    18    8   75 1    
    19    9   10 ar   
    20    9   14 ar   
    21   10   11 ar   
    22   10   76 1    
    23   11   12 ar   
    24   11   48 1    
    25   12   13 ar   
    26   12   77 1    
    27   13   14 ar   
    28   13   15 1    
    29   14   78 1    
    30   15   16 1    
    31   15   79 1    
    32   15   80 1    
    33   16   17 1    
    34   17   18 1    
    35   17   81 1    
    36   17   82 1    
    37   18   19 1    
    38   18   22 1    
    39   18   83 1    
    40   19   20 am   BACKBONE|DICT|INTERRES
    41   19   21 2    
    42   20   84 1    
    43   20   85 1    
    44   22   23 am   BACKBONE|DICT|INTERRES
    45   22   86 1    
    46   23   24 2    
    47   23   25 1    
    48   25   26 1    
    49   25   27 1    
    50   25   87 1    
    51   26   88 1    
    52   26   89 1    
    53   26   90 1    
    54   27   28 am   BACKBONE|DICT|INTERRES
    55   27   91 1    
    56   28   29 2    
    57   28   30 1    
    58   30   31 1    
    59   30   32 1    
    60   30   92 1    
    61   31   93 1    
    62   31   94 1    
    63   31   95 1    
    64   32   33 am   BACKBONE|DICT|INTERRES
    65   32   96 1    
    66   33   34 2    
    67   33   35 1    
    68   35   36 1    
    69   35   37 1    
    70   35   97 1    
    71   36   98 1    
    72   36   99 1    
    73   36  100 1    
    74   37   38 am   BACKBONE|DICT|INTERRES
    75   37  101 1    
    76   38   39 2    
    77   38   40 1    
    78   40   41 1    
    79   40   42 1    
    80   40  102 1    
    81   41  103 1    
    82   41  104 1    
    83   41  105 1    
    84   42   43 am   BACKBONE|DICT|INTERRES
    85   42  106 1    
    86   43   44 2    
    87   43   45 1    
    88   45   46 1    
    89   45   49 1    
    90   45  107 1    
    91   46   47 1    
    92   46  108 1    
    93   46  109 1    
    94   47   48 1    
    95   48  110 1    
    96   48  111 1    
    97   49   50 am   BACKBONE|DICT|INTERRES
    98   49  112 1    
    99   50   51 2    
   100   50   52 1    
   101   52   53 1    
   102   52   54 1    
   103   52  113 1    
   104   53  114 1    
   105   53  115 1    
   106   53  116 1    
   107   54   55 am   BACKBONE|DICT|INTERRES
   108   54  117 1    
   109   55   56 2    
   110   55   57 1    
   111   57   58 1    
   112   57   59 1    
   113   57  118 1    
   114   58  119 1    
   115   58  120 1    
   116   58  121 1    
   117   59   60 am   BACKBONE|DICT|INTERRES
   118   59  122 1    
   119   60   61 2    
   120   60   62 1    
   121   62   63 1    
   122   62   64 1    
   123   62  123 1    
   124   63  124 1    
   125   63  125 1    
   126   63  126 1    
   127   64   65 am   BACKBONE|DICT|INTERRES
   128   64  127 1    
   129   65   66 2    
@<TRIPOS>SUBSTRUCTURE
     1 UNK         1 GROUP             0       ****    0 ROOT    
