@<TRIPOS>MOLECULE
3R135
127   129    1
SMALL
USER_CHARGES


@<TRIPOS>ATOM
      1 CA        -83.8398   25.6241  -75.3692 C.3       0 UNK        -0.1998 
      2 C         -82.9455   26.8031  -75.0193 C.2       0 UNK         0.4909 
      3 O         -82.5103   27.5287  -75.9137 O.2       0 UNK        -0.5240 
      4 N         -82.6640   27.0085  -73.7265 N.am      1 UNK        -0.4739 
      5 CA        -81.7843   28.0729  -73.2352 C.3       1 UNK         0.0864 
      6 C6        -81.9461   28.3234  -71.7154 C.3       11 UNK        -0.0881 
      7 S7        -81.7636   26.8406  -70.6627 S.3       11 UNK        -0.2682 
      8 C8        -80.6301   27.4430  -69.3719 C.3       11 UNK         0.0289 
      9 C9        -79.1824   27.4351  -69.8386 C.ar      11 UNK        -0.0687 
     10 C10       -78.4413   26.2531  -69.7756 C.ar      11 UNK        -0.0823 
     11 C11       -77.1050   26.2332  -70.1793 C.ar      11 UNK        -0.0830 
     12 C12       -76.5086   27.4070  -70.6465 C.ar      11 UNK        -0.1021 
     13 C13       -77.2415   28.5990  -70.7337 C.ar      11 UNK        -0.0753 
     14 C14       -78.5769   28.6019  -70.3157 C.ar      11 UNK        -0.0933 
     15 C15       -76.6431   29.9049  -71.2619 C.3       11 UNK         0.0166 
     16 S16       -75.0578   29.7327  -72.1519 S.3       11 UNK        -0.2615 
     17 C17       -74.9252   31.3684  -72.9571 C.3       11 UNK        -0.0865 
     18 CA        -73.9039   31.4205  -74.1270 C.3       10 UNK         0.0862 
     19 C         -72.4510   31.6200  -73.6148 C.2       10 UNK         0.5551 
     20 N         -72.0119   32.8635  -73.4734 N.am      10 UNK        -0.7319 
     21 O         -71.7375   30.6685  -73.3046 O.2       10 UNK        -0.5018 
     22 N         -74.0250   30.2507  -75.0059 N.am      10 UNK        -0.4509 
     23 C         -73.5941   30.1821  -76.2693 C.2       10 UNK         0.4899 
     24 O         -73.1802   31.1515  -76.9080 O.2       10 UNK        -0.4839 
     25 CA        -73.6222   28.7774  -76.9041 C.3       9 UNK         0.0222 
     26 CB        -73.0505   28.7482  -78.3371 C.3       9 UNK        -0.1966 
     27 N         -72.9637   27.7751  -76.0548 N.am      9 UNK        -0.4218 
     28 C         -71.6924   27.7923  -75.6159 C.2       9 UNK         0.5020 
     29 O         -70.8547   28.6377  -75.9325 O.2       9 UNK        -0.5274 
     30 CA        -71.2797   26.6504  -74.6771 C.3       8 UNK         0.0270 
     31 CB        -71.9504   26.7958  -73.2984 C.3       8 UNK        -0.1976 
     32 N         -71.6288   25.3615  -75.2717 N.am      8 UNK        -0.4313 
     33 C         -70.8143   24.6375  -76.0530 C.2       8 UNK         0.5041 
     34 O         -69.6307   24.9135  -76.2534 O.2       8 UNK        -0.5577 
     35 CA        -71.4165   23.3946  -76.7374 C.3       7 UNK         0.0284 
     36 CB        -71.1721   22.1388  -75.8849 C.3       7 UNK        -0.1958 
     37 N         -72.8508   23.5270  -77.0040 N.am      7 UNK        -0.4454 
     38 C         -73.3886   24.3837  -77.8841 C.2       7 UNK         0.5089 
     39 O         -72.7256   25.0591  -78.6705 O.2       7 UNK        -0.5125 
     40 CA        -74.9221   24.5351  -77.8699 C.3       6 UNK         0.0408 
     41 CB        -75.5442   23.7682  -79.0470 C.3       6 UNK        -0.1791 
     42 N         -75.5709   24.1114  -76.6217 N.am      6 UNK        -0.4762 
     43 C         -75.3594   24.6411  -75.4070 C.2       6 UNK         0.5007 
     44 O         -74.5240   25.5224  -75.1928 O.2       6 UNK        -0.5032 
     45 CA        -76.2074   24.0730  -74.2505 C.3       5 UNK         0.0783 
     46 C46       -75.8802   24.7304  -72.8883 C.3       11 UNK        -0.0857 
     47 S47       -76.6898   23.8470  -71.5135 S.3       11 UNK        -0.2512 
     48 C48       -76.3074   24.9405  -70.1114 C.3       11 UNK         0.0225 
     49 N         -77.6300   24.1877  -74.5804 N.am      5 UNK        -0.4615 
     50 C         -78.3403   23.2712  -75.2481 C.2       4 UNK         0.5053 
     51 O         -77.8810   22.1951  -75.6305 O.2       4 UNK        -0.5105 
     52 CA        -79.7800   23.6586  -75.6106 C.3       4 UNK         0.0263 
     53 CB        -80.7077   23.5348  -74.3905 C.3       4 UNK        -0.1981 
     54 N         -79.8189   25.0173  -76.1610 N.am      4 UNK        -0.4224 
     55 C         -79.4180   25.3170  -77.4084 C.2       3 UNK         0.4895 
     56 O         -79.1161   24.4642  -78.2435 O.2       3 UNK        -0.5091 
     57 CA        -79.3224   26.7990  -77.8132 C.3       3 UNK         0.0250 
     58 CB        -80.4915   27.1893  -78.7320 C.3       3 UNK        -0.1996 
     59 N         -79.2718   27.7091  -76.6679 N.am      3 UNK        -0.4254 
     60 C         -78.1682   27.9469  -75.9419 C.2       2 UNK         0.5004 
     61 O         -77.0665   27.4675  -76.2012 O.2       2 UNK        -0.5226 
     62 CA        -78.3108   28.8651  -74.7119 C.3       2 UNK         0.0269 
     63 CB        -77.8948   30.2974  -75.0819 C.3       2 UNK        -0.1926 
     64 N         -79.6612   28.8993  -74.1380 N.am      2 UNK        -0.4687 
     65 C         -80.3220   27.8324  -73.6679 C.2       1 UNK         0.5165 
     66 O         -79.8412   26.6967  -73.6397 O.2       1 UNK        -0.5079 
     67 H67       -84.7807   25.9802  -75.7876 H         1 UNK         0.0900 
     68 H68       -83.3542   24.9934  -76.1134 H         1 UNK         0.0900 
     69 H69       -84.0649   25.0109  -74.4968 H         1 UNK         0.0900 
     70 H70       -83.0039   26.3693  -73.0217 H         1 UNK         0.2959 
     71 H71       -82.1132   28.9892  -73.7317 H         1 UNK         0.1079 
     72 H72       -82.9431   28.7250  -71.5276 H         1 UNK         0.0837 
     73 H73       -81.2606   29.1061  -71.3892 H         1 UNK         0.0837 
     74 H74       -80.7303   26.8016  -68.4950 H         1 UNK         0.0685 
     75 H75       -80.9299   28.4412  -69.0490 H         1 UNK         0.0685 
     76 H76       -78.9072   25.3453  -69.4170 H         1 UNK         0.1434 
     77 H77       -75.4723   27.3742  -70.9493 H         1 UNK         0.1329 
     78 H78       -79.1472   29.5192  -70.3628 H         1 UNK         0.1335 
     79 H79       -76.5015   30.5918  -70.4265 H         1 UNK         0.0680 
     80 H80       -77.3681   30.3705  -71.9303 H         1 UNK         0.0680 
     81 H81       -74.6981   32.1214  -72.1995 H         1 UNK         0.1032 
     82 H82       -75.9066   31.6412  -73.3431 H         1 UNK         0.1032 
     83 H83       -74.1554   32.2980  -74.7269 H         1 UNK         0.0461 
     84 H84       -72.5899   33.6534  -73.7154 H         1 UNK         0.3453 
     85 H85       -71.0774   33.0152  -73.1269 H         1 UNK         0.3453 
     86 H86       -74.3070   29.3993  -74.5419 H         1 UNK         0.2984 
     87 H87       -74.6713   28.4859  -76.9646 H         1 UNK         0.0554 
     88 H88       -73.5997   29.4277  -78.9897 H         1 UNK         0.0847 
     89 H89       -73.1248   27.7523  -78.7726 H         1 UNK         0.0847 
     90 H90       -72.0025   29.0481  -78.3635 H         1 UNK         0.0847 
     91 H91       -73.5670   27.0227  -75.7267 H         1 UNK         0.3141 
     92 H92       -70.1992   26.7074  -74.5275 H         1 UNK         0.0743 
     93 H93       -71.6232   26.0118  -72.6156 H         1 UNK         0.0784 
     94 H94       -71.6912   27.7525  -72.8423 H         1 UNK         0.0784 
     95 H95       -73.0382   26.7533  -73.3581 H         1 UNK         0.0784 
     96 H96       -72.6059   25.0954  -75.2094 H         1 UNK         0.3213 
     97 H97       -70.9053   23.2656  -77.6940 H         1 UNK         0.0855 
     98 H98       -71.6707   22.2022  -74.9169 H         1 UNK         0.0814 
     99 H99       -70.1069   22.0006  -75.6934 H         1 UNK         0.0814 
    100 H100      -71.5273   21.2401  -76.3895 H         1 UNK         0.0814 
    101 H101      -73.4784   22.9894  -76.4248 H         1 UNK         0.3105 
    102 H102      -75.1399   25.5974  -78.0012 H         1 UNK         0.0547 
    103 H103      -75.3949   22.6920  -78.9523 H         1 UNK         0.0837 
    104 H104      -75.0998   24.0773  -79.9942 H         1 UNK         0.0837 
    105 H105      -76.6153   23.9540  -79.1210 H         1 UNK         0.0837 
    106 H106      -76.2774   23.3899  -76.7014 H         1 UNK         0.3020 
    107 H107      -75.9398   23.0165  -74.1713 H         1 UNK         0.1245 
    108 H108      -76.1912   25.7763  -72.8907 H         1 UNK         0.0781 
    109 H109      -74.8052   24.7234  -72.6974 H         1 UNK         0.0781 
    110 H110      -75.2354   25.1432  -70.0862 H         1 UNK         0.0836 
    111 H111      -76.5397   24.4180  -69.1823 H         1 UNK         0.0836 
    112 H112      -78.0822   25.0514  -74.3119 H         1 UNK         0.3022 
    113 H113      -80.1369   22.9608  -76.3715 H         1 UNK         0.0747 
    114 H114      -81.7370   23.7786  -74.6470 H         1 UNK         0.0793 
    115 H115      -80.7061   22.5132  -74.0083 H         1 UNK         0.0793 
    116 H116      -80.4018   24.1835  -73.5697 H         1 UNK         0.0793 
    117 H117      -80.0137   25.7683  -75.5083 H         1 UNK         0.3047 
    118 H118      -78.3984   26.9152  -78.3844 H         1 UNK         0.0822 
    119 H119      -80.4204   28.2305  -79.0469 H         1 UNK         0.0807 
    120 H120      -81.4565   27.0494  -78.2455 H         1 UNK         0.0807 
    121 H121      -80.4950   26.5783  -79.6357 H         1 UNK         0.0807 
    122 H122      -80.1477   28.1259  -76.3802 H         1 UNK         0.2946 
    123 H123      -77.6324   28.4871  -73.9428 H         1 UNK         0.1144 
    124 H124      -77.9760   30.9706  -74.2297 H         1 UNK         0.0793 
    125 H125      -78.5137   30.7020  -75.8838 H         1 UNK         0.0793 
    126 H126      -76.8603   30.3260  -75.4255 H         1 UNK         0.0793 
    127 H127      -80.1259   29.7962  -74.1471 H         1 UNK         0.2896 
@<TRIPOS>BOND
     1    1    2 1    
     2    1   67 1    
     3    1   68 1    
     4    1   69 1    
     5    2    3 2    
     6    2    4 am   BACKBONE|DICT|INTERRES
     7    4    5 1    
     8    4   70 1    
     9    5    6 1    
    10    5   65 1    
    11    5   71 1    
    12    6    7 1    
    13    6   72 1    
    14    6   73 1    
    15    7    8 1    
    16    8    9 1    
    17    8   74 1    
    18    8   75 1    
    19    9   10 ar   
    20    9   14 ar   
    21   10   11 ar   
    22   10   76 1    
    23   11   12 ar   
    24   11   48 1    
    25   12   13 ar   
    26   12   77 1    
    27   13   14 ar   
    28   13   15 1    
    29   14   78 1    
    30   15   16 1    
    31   15   79 1    
    32   15   80 1    
    33   16   17 1    
    34   17   18 1    
    35   17   81 1    
    36   17   82 1    
    37   18   19 1    
    38   18   22 1    
    39   18   83 1    
    40   19   20 am   BACKBONE|DICT|INTERRES
    41   19   21 2    
    42   20   84 1    
    43   20   85 1    
    44   22   23 am   BACKBONE|DICT|INTERRES
    45   22   86 1    
    46   23   24 2    
    47   23   25 1    
    48   25   26 1    
    49   25   27 1    
    50   25   87 1    
    51   26   88 1    
    52   26   89 1    
    53   26   90 1    
    54   27   28 am   BACKBONE|DICT|INTERRES
    55   27   91 1    
    56   28   29 2    
    57   28   30 1    
    58   30   31 1    
    59   30   32 1    
    60   30   92 1    
    61   31   93 1    
    62   31   94 1    
    63   31   95 1    
    64   32   33 am   BACKBONE|DICT|INTERRES
    65   32   96 1    
    66   33   34 2    
    67   33   35 1    
    68   35   36 1    
    69   35   37 1    
    70   35   97 1    
    71   36   98 1    
    72   36   99 1    
    73   36  100 1    
    74   37   38 am   BACKBONE|DICT|INTERRES
    75   37  101 1    
    76   38   39 2    
    77   38   40 1    
    78   40   41 1    
    79   40   42 1    
    80   40  102 1    
    81   41  103 1    
    82   41  104 1    
    83   41  105 1    
    84   42   43 am   BACKBONE|DICT|INTERRES
    85   42  106 1    
    86   43   44 2    
    87   43   45 1    
    88   45   46 1    
    89   45   49 1    
    90   45  107 1    
    91   46   47 1    
    92   46  108 1    
    93   46  109 1    
    94   47   48 1    
    95   48  110 1    
    96   48  111 1    
    97   49   50 am   BACKBONE|DICT|INTERRES
    98   49  112 1    
    99   50   51 2    
   100   50   52 1    
   101   52   53 1    
   102   52   54 1    
   103   52  113 1    
   104   53  114 1    
   105   53  115 1    
   106   53  116 1    
   107   54   55 am   BACKBONE|DICT|INTERRES
   108   54  117 1    
   109   55   56 2    
   110   55   57 1    
   111   57   58 1    
   112   57   59 1    
   113   57  118 1    
   114   58  119 1    
   115   58  120 1    
   116   58  121 1    
   117   59   60 am   BACKBONE|DICT|INTERRES
   118   59  122 1    
   119   60   61 2    
   120   60   62 1    
   121   62   63 1    
   122   62   64 1    
   123   62  123 1    
   124   63  124 1    
   125   63  125 1    
   126   63  126 1    
   127   64   65 am   BACKBONE|DICT|INTERRES
   128   64  127 1    
   129   65   66 2    
@<TRIPOS>SUBSTRUCTURE
     1 UNK         1 GROUP             0       ****    0 ROOT    
