@<TRIPOS>MOLECULE
3R135
127   129    1
SMALL
USER_CHARGES


@<TRIPOS>ATOM
      1 CA        -84.1115   24.3667  -73.7020 C.3       0 UNK        -0.1998 
      2 C         -83.4122   25.7012  -73.9107 C.2       0 UNK         0.4909 
      3 O         -83.2708   26.1490  -75.0493 O.2       0 UNK        -0.5240 
      4 N         -82.9785   26.3444  -72.8192 N.am      1 UNK        -0.4739 
      5 CA        -82.2369   27.6094  -72.8362 C.3       1 UNK         0.0864 
      6 C6        -82.2059   28.2936  -71.4457 C.3       11 UNK        -0.0881 
      7 S7        -81.5938   27.2354  -70.0877 S.3       11 UNK        -0.2682 
      8 C8        -80.3166   28.2899  -69.3277 C.3       11 UNK         0.0289 
      9 C9        -78.9608   28.1701  -70.0127 C.ar      11 UNK        -0.0687 
     10 C10       -78.2560   26.9654  -69.9467 C.ar      11 UNK        -0.0823 
     11 C11       -76.9748   26.8619  -70.4915 C.ar      11 UNK        -0.0830 
     12 C12       -76.3954   27.9756  -71.1038 C.ar      11 UNK        -0.1021 
     13 C13       -77.0861   29.1929  -71.1865 C.ar      11 UNK        -0.0753 
     14 C14       -78.3757   29.2733  -70.6449 C.ar      11 UNK        -0.0933 
     15 C15       -76.4773   30.4556  -71.8078 C.3       11 UNK         0.0166 
     16 S16       -74.7478   30.3164  -72.3910 S.3       11 UNK        -0.2615 
     17 C17       -74.9634   29.4549  -73.9906 C.3       11 UNK        -0.0865 
     18 CA        -74.3937   30.1844  -75.2450 C.3       10 UNK         0.0862 
     19 C         -74.9065   31.6425  -75.4648 C.2       10 UNK         0.5551 
     20 N         -74.1391   32.5215  -76.0975 N.am      10 UNK        -0.7319 
     21 O         -76.0324   31.9735  -75.1041 O.2       10 UNK        -0.5018 
     22 N         -72.9490   29.9574  -75.4305 N.am      10 UNK        -0.4509 
     23 C         -71.9192   30.5291  -74.7929 C.2       10 UNK         0.4899 
     24 O         -72.0287   31.4086  -73.9388 O.2       10 UNK        -0.4839 
     25 CA        -70.5180   30.0162  -75.1923 C.3       9 UNK         0.0222 
     26 CB        -69.3815   30.8039  -74.5131 C.3       9 UNK        -0.1966 
     27 N         -70.3480   28.5889  -74.8984 N.am      9 UNK        -0.4218 
     28 C         -70.8946   27.5825  -75.5932 C.2       9 UNK         0.5020 
     29 O         -71.5765   27.7557  -76.6079 O.2       9 UNK        -0.5274 
     30 CA        -70.6577   26.1660  -75.0430 C.3       8 UNK         0.0270 
     31 CB        -71.2257   26.0223  -73.6173 C.3       8 UNK        -0.1976 
     32 N         -71.3146   25.1830  -75.9033 N.am      8 UNK        -0.4313 
     33 C         -70.7089   24.4361  -76.8360 C.2       8 UNK         0.5041 
     34 O         -69.4904   24.4316  -77.0208 O.2       8 UNK        -0.5577 
     35 CA        -71.5952   23.5223  -77.7074 C.3       7 UNK         0.0284 
     36 CB        -71.4836   22.0618  -77.2388 C.3       7 UNK        -0.1958 
     37 N         -73.0068   23.9139  -77.7095 N.am      7 UNK        -0.4454 
     38 C         -73.5091   24.9652  -78.3714 C.2       7 UNK         0.5089 
     39 O         -72.8582   25.6440  -79.1661 O.2       7 UNK        -0.5125 
     40 CA        -74.9831   25.3309  -78.1006 C.3       6 UNK         0.0408 
     41 CB        -75.8669   24.9294  -79.2922 C.3       6 UNK        -0.1791 
     42 N         -75.5543   24.7641  -76.8708 N.am      6 UNK        -0.4762 
     43 C         -75.1309   25.0163  -75.6214 C.2       6 UNK         0.5007 
     44 O         -74.1303   25.6901  -75.3778 O.2       6 UNK        -0.5032 
     45 CA        -75.9417   24.4037  -74.4614 C.3       5 UNK         0.0783 
     46 C46       -75.8075   25.2284  -73.1562 C.3       11 UNK        -0.0857 
     47 S47       -76.6204   24.4148  -71.7401 S.3       11 UNK        -0.2512 
     48 C48       -76.2022   25.5554  -70.3879 C.3       11 UNK         0.0225 
     49 N         -77.3429   24.2575  -74.8586 N.am      5 UNK        -0.4615 
     50 C         -78.0294   23.1098  -74.9042 C.2       4 UNK         0.5053 
     51 O         -77.5330   22.0066  -74.6757 O.2       4 UNK        -0.5105 
     52 CA        -79.5240   23.1965  -75.2655 C.3       4 UNK         0.0263 
     53 CB        -80.3918   22.9607  -74.0187 C.3       4 UNK        -0.1981 
     54 N         -79.8880   24.4791  -75.8752 N.am      4 UNK        -0.4224 
     55 C         -79.6178   24.8041  -77.1486 C.2       3 UNK         0.4895 
     56 O         -79.1051   24.0265  -77.9536 O.2       3 UNK        -0.5091 
     57 CA        -79.9365   26.2401  -77.6019 C.3       3 UNK         0.0250 
     58 CB        -81.3070   26.2934  -78.2950 C.3       3 UNK        -0.1996 
     59 N         -79.9030   27.2258  -76.5183 N.am      3 UNK        -0.4254 
     60 C         -78.8100   27.5640  -75.8181 C.2       2 UNK         0.5004 
     61 O         -77.6951   27.0857  -76.0156 O.2       2 UNK        -0.5226 
     62 CA        -78.9961   28.5794  -74.6781 C.3       2 UNK         0.0269 
     63 CB        -78.7563   30.0026  -75.2026 C.3       2 UNK        -0.1926 
     64 N         -80.3103   28.5236  -74.0316 N.am      2 UNK        -0.4687 
     65 C         -80.8263   27.4398  -73.4353 C.2       1 UNK         0.5165 
     66 O         -80.2469   26.3525  -73.3752 O.2       1 UNK        -0.5079 
     67 H67       -83.7921   23.6495  -74.4573 H         1 UNK         0.0900 
     68 H68       -85.1903   24.4924  -73.7891 H         1 UNK         0.0900 
     69 H69       -83.8923   23.9451  -72.7212 H         1 UNK         0.0900 
     70 H70       -83.0797   25.9194  -71.9083 H         1 UNK         0.2959 
     71 H71       -82.7821   28.2768  -73.5080 H         1 UNK         0.1079 
     72 H72       -81.6256   29.2172  -71.4891 H         1 UNK         0.0837 
     73 H73       -83.2175   28.6047  -71.1801 H         1 UNK         0.0837 
     74 H74       -80.6580   29.3258  -69.3029 H         1 UNK         0.0685 
     75 H75       -80.2023   27.9894  -68.2853 H         1 UNK         0.0685 
     76 H76       -78.7026   26.1104  -69.4575 H         1 UNK         0.1434 
     77 H77       -75.3968   27.8787  -71.5026 H         1 UNK         0.1329 
     78 H78       -78.9126   30.2112  -70.6867 H         1 UNK         0.1335 
     79 H79       -77.1056   30.7973  -72.6307 H         1 UNK         0.0680 
     80 H80       -76.5039   31.2477  -71.0583 H         1 UNK         0.0680 
     81 H81       -76.0250   29.2652  -74.1453 H         1 UNK         0.1032 
     82 H82       -74.5142   28.4637  -73.9073 H         1 UNK         0.1032 
     83 H83       -74.8246   29.6530  -76.0946 H         1 UNK         0.0461 
     84 H84       -74.4817   33.4568  -76.2498 H         1 UNK         0.3453 
     85 H85       -73.2136   32.2641  -76.3995 H         1 UNK         0.3453 
     86 H86       -72.7080   29.2258  -76.0945 H         1 UNK         0.2984 
     87 H87       -70.4174   30.1616  -76.2701 H         1 UNK         0.0554 
     88 H88       -68.4033   30.4687  -74.8584 H         1 UNK         0.0847 
     89 H89       -69.4086   30.7005  -73.4275 H         1 UNK         0.0847 
     90 H90       -69.4541   31.8684  -74.7404 H         1 UNK         0.0847 
     91 H91       -69.8252   28.3663  -74.0635 H         1 UNK         0.3141 
     92 H92       -69.5812   25.9855  -75.0133 H         1 UNK         0.0743 
     93 H93       -70.6790   26.6410  -72.9053 H         1 UNK         0.0784 
     94 H94       -72.2743   26.3183  -73.5663 H         1 UNK         0.0784 
     95 H95       -71.1535   24.9932  -73.2647 H         1 UNK         0.0784 
     96 H96       -72.3307   25.2114  -75.8794 H         1 UNK         0.3213 
     97 H97       -71.2183   23.5826  -78.7309 H         1 UNK         0.0855 
     98 H98       -70.4461   21.7249  -77.2579 H         1 UNK         0.0814 
     99 H99       -72.0509   21.3921  -77.8854 H         1 UNK         0.0814 
    100 H100      -71.8476   21.9352  -76.2185 H         1 UNK         0.0814 
    101 H101      -73.6263   23.4042  -77.0972 H         1 UNK         0.3105 
    102 H102      -75.0244   26.4176  -78.0007 H         1 UNK         0.0547 
    103 H103      -75.4845   25.3489  -80.2239 H         1 UNK         0.0837 
    104 H104      -75.9114   23.8468  -79.4155 H         1 UNK         0.0837 
    105 H105      -76.8860   25.2963  -79.1706 H         1 UNK         0.0837 
    106 H106      -76.3908   24.2076  -76.9796 H         1 UNK         0.3020 
    107 H107      -75.4978   23.4220  -74.2825 H         1 UNK         0.1245 
    108 H108      -76.2416   26.2201  -73.2948 H         1 UNK         0.0781 
    109 H109      -74.7584   25.3782  -72.8940 H         1 UNK         0.0781 
    110 H110      -75.1270   25.7411  -70.3826 H         1 UNK         0.0836 
    111 H111      -76.4286   25.0702  -69.4372 H         1 UNK         0.0836 
    112 H112      -77.8089   25.1220  -75.1077 H         1 UNK         0.3022 
    113 H113      -79.7353   22.3977  -75.9797 H         1 UNK         0.0747 
    114 H114      -81.4524   22.9770  -74.2652 H         1 UNK         0.0793 
    115 H115      -80.1786   21.9877  -73.5742 H         1 UNK         0.0793 
    116 H116      -80.2106   23.7132  -73.2504 H         1 UNK         0.0793 
    117 H117      -80.2734   25.1825  -75.2550 H         1 UNK         0.3047 
    118 H118      -79.1736   26.5254  -78.3296 H         1 UNK         0.0822 
    119 H119      -81.5091   27.2844  -78.7018 H         1 UNK         0.0807 
    120 H120      -82.1162   26.0396  -77.6087 H         1 UNK         0.0807 
    121 H121      -81.3518   25.5884  -79.1264 H         1 UNK         0.0807 
    122 H122      -80.7820   27.6561  -76.2686 H         1 UNK         0.2946 
    123 H123      -78.2479   28.3494  -73.9161 H         1 UNK         0.1144 
    124 H124      -78.7401   30.7316  -74.3927 H         1 UNK         0.0793 
    125 H125      -79.5260   30.3073  -75.9126 H         1 UNK         0.0793 
    126 H126      -77.7988   30.0709  -75.7197 H         1 UNK         0.0793 
    127 H127      -80.8487   29.3782  -74.0415 H         1 UNK         0.2896 
@<TRIPOS>BOND
     1    1    2 1    
     2    1   67 1    
     3    1   68 1    
     4    1   69 1    
     5    2    3 2    
     6    2    4 am   BACKBONE|DICT|INTERRES
     7    4    5 1    
     8    4   70 1    
     9    5    6 1    
    10    5   65 1    
    11    5   71 1    
    12    6    7 1    
    13    6   72 1    
    14    6   73 1    
    15    7    8 1    
    16    8    9 1    
    17    8   74 1    
    18    8   75 1    
    19    9   10 ar   
    20    9   14 ar   
    21   10   11 ar   
    22   10   76 1    
    23   11   12 ar   
    24   11   48 1    
    25   12   13 ar   
    26   12   77 1    
    27   13   14 ar   
    28   13   15 1    
    29   14   78 1    
    30   15   16 1    
    31   15   79 1    
    32   15   80 1    
    33   16   17 1    
    34   17   18 1    
    35   17   81 1    
    36   17   82 1    
    37   18   19 1    
    38   18   22 1    
    39   18   83 1    
    40   19   20 am   BACKBONE|DICT|INTERRES
    41   19   21 2    
    42   20   84 1    
    43   20   85 1    
    44   22   23 am   BACKBONE|DICT|INTERRES
    45   22   86 1    
    46   23   24 2    
    47   23   25 1    
    48   25   26 1    
    49   25   27 1    
    50   25   87 1    
    51   26   88 1    
    52   26   89 1    
    53   26   90 1    
    54   27   28 am   BACKBONE|DICT|INTERRES
    55   27   91 1    
    56   28   29 2    
    57   28   30 1    
    58   30   31 1    
    59   30   32 1    
    60   30   92 1    
    61   31   93 1    
    62   31   94 1    
    63   31   95 1    
    64   32   33 am   BACKBONE|DICT|INTERRES
    65   32   96 1    
    66   33   34 2    
    67   33   35 1    
    68   35   36 1    
    69   35   37 1    
    70   35   97 1    
    71   36   98 1    
    72   36   99 1    
    73   36  100 1    
    74   37   38 am   BACKBONE|DICT|INTERRES
    75   37  101 1    
    76   38   39 2    
    77   38   40 1    
    78   40   41 1    
    79   40   42 1    
    80   40  102 1    
    81   41  103 1    
    82   41  104 1    
    83   41  105 1    
    84   42   43 am   BACKBONE|DICT|INTERRES
    85   42  106 1    
    86   43   44 2    
    87   43   45 1    
    88   45   46 1    
    89   45   49 1    
    90   45  107 1    
    91   46   47 1    
    92   46  108 1    
    93   46  109 1    
    94   47   48 1    
    95   48  110 1    
    96   48  111 1    
    97   49   50 am   BACKBONE|DICT|INTERRES
    98   49  112 1    
    99   50   51 2    
   100   50   52 1    
   101   52   53 1    
   102   52   54 1    
   103   52  113 1    
   104   53  114 1    
   105   53  115 1    
   106   53  116 1    
   107   54   55 am   BACKBONE|DICT|INTERRES
   108   54  117 1    
   109   55   56 2    
   110   55   57 1    
   111   57   58 1    
   112   57   59 1    
   113   57  118 1    
   114   58  119 1    
   115   58  120 1    
   116   58  121 1    
   117   59   60 am   BACKBONE|DICT|INTERRES
   118   59  122 1    
   119   60   61 2    
   120   60   62 1    
   121   62   63 1    
   122   62   64 1    
   123   62  123 1    
   124   63  124 1    
   125   63  125 1    
   126   63  126 1    
   127   64   65 am   BACKBONE|DICT|INTERRES
   128   64  127 1    
   129   65   66 2    
@<TRIPOS>SUBSTRUCTURE
     1 UNK         1 GROUP             0       ****    0 ROOT    
