@<TRIPOS>MOLECULE
3R135
127   129    1
SMALL
USER_CHARGES


@<TRIPOS>ATOM
      1 CA        -84.0871   29.2830  -75.0605 C.3       0 UNK        -0.1998 
      2 C         -82.7200   28.9653  -75.6472 C.2       0 UNK         0.4909 
      3 O         -82.3751   29.4803  -76.7109 O.2       0 UNK        -0.5240 
      4 N         -81.9400   28.1175  -74.9636 N.am      1 UNK        -0.4739 
      5 CA        -80.5846   27.7142  -75.3689 C.3       1 UNK         0.0864 
      6 C6        -79.7588   27.1634  -74.1781 C.3       11 UNK        -0.0881 
      7 S7        -79.6777   28.3256  -72.7685 S.3       11 UNK        -0.2682 
      8 C8        -78.1667   29.2740  -73.1486 C.3       11 UNK         0.0289 
      9 C9        -76.9279   28.7721  -72.4111 C.ar      11 UNK        -0.0687 
     10 C10       -76.5502   27.4259  -72.4603 C.ar      11 UNK        -0.0823 
     11 C11       -75.3965   26.9838  -71.8081 C.ar      11 UNK        -0.0830 
     12 C12       -74.6054   27.9022  -71.1126 C.ar      11 UNK        -0.1021 
     13 C13       -74.9634   29.2529  -71.0551 C.ar      11 UNK        -0.0753 
     14 C14       -76.1328   29.6759  -71.6979 C.ar      11 UNK        -0.0933 
     15 C15       -74.0976   30.2284  -70.2624 C.3       11 UNK         0.0166 
     16 S16       -73.8017   31.8060  -71.1329 S.3       11 UNK        -0.2615 
     17 C17       -72.1430   32.2668  -70.5142 C.3       11 UNK        -0.0865 
     18 CA        -71.0669   32.3070  -71.6407 C.3       10 UNK         0.0862 
     19 C         -69.6679   32.7518  -71.1156 C.2       10 UNK         0.5551 
     20 N         -68.5679   32.2567  -71.6697 N.am      10 UNK        -0.7319 
     21 O         -69.5745   33.5816  -70.2140 O.2       10 UNK        -0.5018 
     22 N         -71.0633   31.0983  -72.4866 N.am      10 UNK        -0.4509 
     23 C         -70.8115   29.8457  -72.0857 C.2       10 UNK         0.4899 
     24 O         -70.4643   29.5392  -70.9445 O.2       10 UNK        -0.4839 
     25 CA        -71.0521   28.7593  -73.1430 C.3       9 UNK         0.0222 
     26 CB        -70.8089   27.3346  -72.6114 C.3       9 UNK        -0.1966 
     27 N         -72.4314   28.8739  -73.6174 N.am      9 UNK        -0.4218 
     28 C         -72.8083   28.9977  -74.8931 C.2       9 UNK         0.5020 
     29 O         -72.0348   28.9932  -75.8549 O.2       9 UNK        -0.5274 
     30 CA        -74.3078   29.1889  -75.1328 C.3       8 UNK         0.0270 
     31 CB        -74.7232   30.6597  -74.9561 C.3       8 UNK        -0.1976 
     32 N         -74.6274   28.7436  -76.4852 N.am      8 UNK        -0.4313 
     33 C         -75.7596   28.1256  -76.8315 C.2       8 UNK         0.5041 
     34 O         -76.6966   27.9526  -76.0483 O.2       8 UNK        -0.5577 
     35 CA        -75.8663   27.5377  -78.2510 C.3       7 UNK         0.0284 
     36 CB        -74.4873   27.3051  -78.9157 C.3       7 UNK        -0.1958 
     37 N         -76.5928   26.2915  -78.0477 N.am      7 UNK        -0.4454 
     38 C         -76.8433   25.2647  -78.8636 C.2       7 UNK         0.5089 
     39 O         -76.6183   25.2597  -80.0752 O.2       7 UNK        -0.5125 
     40 CA        -77.4017   24.0084  -78.1558 C.3       6 UNK         0.0408 
     41 CB        -77.2817   22.7286  -79.0075 C.3       6 UNK        -0.1791 
     42 N         -76.8029   23.8113  -76.8229 N.am      6 UNK        -0.4762 
     43 C         -75.4904   23.6908  -76.5434 C.2       6 UNK         0.5007 
     44 O         -74.6098   23.6083  -77.4002 O.2       6 UNK        -0.5032 
     45 CA        -75.0744   23.6956  -75.0586 C.3       5 UNK         0.0783 
     46 C46       -74.6610   25.1238  -74.6181 C.3       11 UNK        -0.0857 
     47 S47       -73.7421   25.1166  -73.0436 S.3       11 UNK        -0.2512 
     48 C48       -75.0265   25.5080  -71.8153 C.3       11 UNK         0.0225 
     49 N         -76.1244   23.1441  -74.2008 N.am      5 UNK        -0.4615 
     50 C         -76.4518   21.8497  -74.1306 C.2       4 UNK         0.5053 
     51 O         -75.8491   20.9536  -74.7218 O.2       4 UNK        -0.5105 
     52 CA        -77.6796   21.4958  -73.2760 C.3       4 UNK         0.0263 
     53 CB        -77.8189   22.3689  -72.0074 C.3       4 UNK        -0.1981 
     54 N         -78.9147   21.5076  -74.0691 N.am      4 UNK        -0.4224 
     55 C         -79.4648   22.5478  -74.7136 C.2       3 UNK         0.4895 
     56 O         -78.9835   23.6856  -74.7308 O.2       3 UNK        -0.5091 
     57 CA        -80.7783   22.2568  -75.4570 C.3       3 UNK         0.0250 
     58 CB        -81.8706   21.7666  -74.4877 C.3       3 UNK        -0.1996 
     59 N         -81.2591   23.4735  -76.1073 N.am      3 UNK        -0.4254 
     60 C         -81.3972   23.6677  -77.4232 C.2       2 UNK         0.5004 
     61 O         -81.1690   22.8078  -78.2746 O.2       2 UNK        -0.5226 
     62 CA        -81.8871   25.0581  -77.8700 C.3       2 UNK         0.0269 
     63 CB        -83.3633   24.9962  -78.2956 C.3       2 UNK        -0.1926 
     64 N         -81.7359   26.0844  -76.8317 N.am      2 UNK        -0.4687 
     65 C         -80.5819   26.7013  -76.5362 C.2       1 UNK         0.5165 
     66 O         -79.5351   26.4849  -77.1430 O.2       1 UNK        -0.5079 
     67 H67       -84.8720   28.9912  -75.7578 H         1 UNK         0.0900 
     68 H68       -84.1758   30.3531  -74.8756 H         1 UNK         0.0900 
     69 H69       -84.2583   28.7614  -74.1189 H         1 UNK         0.0900 
     70 H70       -82.2596   27.7459  -74.0800 H         1 UNK         0.2959 
     71 H71       -80.0687   28.6024  -75.7413 H         1 UNK         0.1079 
     72 H72       -80.1851   26.2257  -73.8164 H         1 UNK         0.0837 
     73 H73       -78.7475   26.9227  -74.5087 H         1 UNK         0.0837 
     74 H74       -77.9787   29.2685  -74.2219 H         1 UNK         0.0685 
     75 H75       -78.3606   30.3152  -72.8872 H         1 UNK         0.0685 
     76 H76       -77.1582   26.7164  -72.9998 H         1 UNK         0.1434 
     77 H77       -73.7168   27.5566  -70.6014 H         1 UNK         0.1329 
     78 H78       -76.4190   30.7175  -71.6503 H         1 UNK         0.1335 
     79 H79       -73.1411   29.7587  -70.0301 H         1 UNK         0.0680 
     80 H80       -74.5789   30.4367  -69.3062 H         1 UNK         0.0680 
     81 H81       -71.8329   31.5916  -69.7154 H         1 UNK         0.1032 
     82 H82       -72.2316   33.2494  -70.0473 H         1 UNK         0.1032 
     83 H83       -71.3609   33.1095  -72.3181 H         1 UNK         0.0461 
     84 H84       -67.6659   32.5554  -71.3336 H         1 UNK         0.3453 
     85 H85       -68.6334   31.5820  -72.4147 H         1 UNK         0.3453 
     86 H86       -71.3338   31.2446  -73.4482 H         1 UNK         0.2984 
     87 H87       -70.3465   28.9451  -73.9553 H         1 UNK         0.0554 
     88 H88       -70.9604   26.5913  -73.3941 H         1 UNK         0.0847 
     89 H89       -71.4783   27.0902  -71.7859 H         1 UNK         0.0847 
     90 H90       -69.7864   27.2200  -72.2498 H         1 UNK         0.0847 
     91 H91       -73.1408   28.9258  -72.8970 H         1 UNK         0.3141 
     92 H92       -74.8394   28.5707  -74.4076 H         1 UNK         0.0743 
     93 H93       -74.4826   31.0187  -73.9555 H         1 UNK         0.0784 
     94 H94       -74.2166   31.3106  -75.6696 H         1 UNK         0.0784 
     95 H95       -75.7977   30.7832  -75.0918 H         1 UNK         0.0784 
     96 H96       -73.8518   28.7885  -77.1346 H         1 UNK         0.3213 
     97 H97       -76.4732   28.2071  -78.8623 H         1 UNK         0.0855 
     98 H98       -73.9480   28.2424  -79.0559 H         1 UNK         0.0814 
     99 H99       -74.5871   26.8642  -79.9069 H         1 UNK         0.0814 
    100 H100      -73.8591   26.6398  -78.3214 H         1 UNK         0.0814 
    101 H101      -76.9450   26.2256  -77.0977 H         1 UNK         0.3105 
    102 H102      -78.4631   24.1924  -77.9906 H         1 UNK         0.0547 
    103 H103      -77.8310   22.8323  -79.9438 H         1 UNK         0.0837 
    104 H104      -76.2452   22.5050  -79.2614 H         1 UNK         0.0837 
    105 H105      -77.6951   21.8662  -78.4850 H         1 UNK         0.0837 
    106 H106      -77.4542   23.8603  -76.0441 H         1 UNK         0.3020 
    107 H107      -74.1989   23.0458  -74.9827 H         1 UNK         0.1245 
    108 H108      -75.5271   25.7833  -74.5519 H         1 UNK         0.0781 
    109 H109      -73.9990   25.5783  -75.3585 H         1 UNK         0.0781 
    110 H110      -74.6556   25.2274  -70.8283 H         1 UNK         0.0836 
    111 H111      -75.9073   24.8893  -71.9860 H         1 UNK         0.0836 
    112 H112      -76.7275   23.8063  -73.7363 H         1 UNK         0.3022 
    113 H113      -77.5352   20.4662  -72.9441 H         1 UNK         0.0747 
    114 H114      -78.6005   21.9809  -71.3543 H         1 UNK         0.0793 
    115 H115      -76.8927   22.3713  -71.4310 H         1 UNK         0.0793 
    116 H116      -78.0693   23.4059  -72.2315 H         1 UNK         0.0793 
    117 H117      -79.3736   20.6108  -74.1503 H         1 UNK         0.3047 
    118 H118      -80.5789   21.4792  -76.1974 H         1 UNK         0.0822 
    119 H119      -82.8172   21.6139  -75.0067 H         1 UNK         0.0807 
    120 H120      -82.0454   22.4806  -73.6816 H         1 UNK         0.0807 
    121 H121      -81.6041   20.8140  -74.0289 H         1 UNK         0.0807 
    122 H122      -81.3921   24.2686  -75.5001 H         1 UNK         0.2946 
    123 H123      -81.2908   25.3462  -78.7393 H         1 UNK         0.1144 
    124 H124      -83.7075   25.9588  -78.6746 H         1 UNK         0.0793 
    125 H125      -84.0117   24.7089  -77.4669 H         1 UNK         0.0793 
    126 H126      -83.5097   24.2654  -79.0923 H         1 UNK         0.0793 
    127 H127      -82.5585   26.3297  -76.2999 H         1 UNK         0.2896 
@<TRIPOS>BOND
     1    1    2 1    
     2    1   67 1    
     3    1   68 1    
     4    1   69 1    
     5    2    3 2    
     6    2    4 am   BACKBONE|DICT|INTERRES
     7    4    5 1    
     8    4   70 1    
     9    5    6 1    
    10    5   65 1    
    11    5   71 1    
    12    6    7 1    
    13    6   72 1    
    14    6   73 1    
    15    7    8 1    
    16    8    9 1    
    17    8   74 1    
    18    8   75 1    
    19    9   10 ar   
    20    9   14 ar   
    21   10   11 ar   
    22   10   76 1    
    23   11   12 ar   
    24   11   48 1    
    25   12   13 ar   
    26   12   77 1    
    27   13   14 ar   
    28   13   15 1    
    29   14   78 1    
    30   15   16 1    
    31   15   79 1    
    32   15   80 1    
    33   16   17 1    
    34   17   18 1    
    35   17   81 1    
    36   17   82 1    
    37   18   19 1    
    38   18   22 1    
    39   18   83 1    
    40   19   20 am   BACKBONE|DICT|INTERRES
    41   19   21 2    
    42   20   84 1    
    43   20   85 1    
    44   22   23 am   BACKBONE|DICT|INTERRES
    45   22   86 1    
    46   23   24 2    
    47   23   25 1    
    48   25   26 1    
    49   25   27 1    
    50   25   87 1    
    51   26   88 1    
    52   26   89 1    
    53   26   90 1    
    54   27   28 am   BACKBONE|DICT|INTERRES
    55   27   91 1    
    56   28   29 2    
    57   28   30 1    
    58   30   31 1    
    59   30   32 1    
    60   30   92 1    
    61   31   93 1    
    62   31   94 1    
    63   31   95 1    
    64   32   33 am   BACKBONE|DICT|INTERRES
    65   32   96 1    
    66   33   34 2    
    67   33   35 1    
    68   35   36 1    
    69   35   37 1    
    70   35   97 1    
    71   36   98 1    
    72   36   99 1    
    73   36  100 1    
    74   37   38 am   BACKBONE|DICT|INTERRES
    75   37  101 1    
    76   38   39 2    
    77   38   40 1    
    78   40   41 1    
    79   40   42 1    
    80   40  102 1    
    81   41  103 1    
    82   41  104 1    
    83   41  105 1    
    84   42   43 am   BACKBONE|DICT|INTERRES
    85   42  106 1    
    86   43   44 2    
    87   43   45 1    
    88   45   46 1    
    89   45   49 1    
    90   45  107 1    
    91   46   47 1    
    92   46  108 1    
    93   46  109 1    
    94   47   48 1    
    95   48  110 1    
    96   48  111 1    
    97   49   50 am   BACKBONE|DICT|INTERRES
    98   49  112 1    
    99   50   51 2    
   100   50   52 1    
   101   52   53 1    
   102   52   54 1    
   103   52  113 1    
   104   53  114 1    
   105   53  115 1    
   106   53  116 1    
   107   54   55 am   BACKBONE|DICT|INTERRES
   108   54  117 1    
   109   55   56 2    
   110   55   57 1    
   111   57   58 1    
   112   57   59 1    
   113   57  118 1    
   114   58  119 1    
   115   58  120 1    
   116   58  121 1    
   117   59   60 am   BACKBONE|DICT|INTERRES
   118   59  122 1    
   119   60   61 2    
   120   60   62 1    
   121   62   63 1    
   122   62   64 1    
   123   62  123 1    
   124   63  124 1    
   125   63  125 1    
   126   63  126 1    
   127   64   65 am   BACKBONE|DICT|INTERRES
   128   64  127 1    
   129   65   66 2    
@<TRIPOS>SUBSTRUCTURE
     1 UNK         1 GROUP             0       ****    0 ROOT    
