@<TRIPOS>MOLECULE
3R135
127   129    1
SMALL
USER_CHARGES


@<TRIPOS>ATOM
      1 CA        -80.5073   31.0236  -76.0181 C.3       0 UNK        -0.1998 
      2 C         -80.5859   29.7202  -75.2388 C.2       0 UNK         0.4909 
      3 O         -79.9255   28.7492  -75.6063 O.2       0 UNK        -0.5240 
      4 N         -81.3852   29.6921  -74.1651 N.am      1 UNK        -0.4739 
      5 CA        -81.5868   28.5408  -73.2743 C.3       1 UNK         0.0864 
      6 C6        -82.5090   28.8959  -72.0815 C.3       11 UNK        -0.0881 
      7 S7        -81.9327   30.3626  -71.1586 S.3       11 UNK        -0.2682 
      8 C8        -81.1326   29.6097  -69.7091 C.3       11 UNK         0.0289 
      9 C9        -79.8843   28.8198  -70.0783 C.ar      11 UNK        -0.0687 
     10 C10       -79.8780   27.4255  -69.9777 C.ar      11 UNK        -0.0823 
     11 C11       -78.7151   26.6981  -70.2498 C.ar      11 UNK        -0.0830 
     12 C12       -77.5580   27.3758  -70.6487 C.ar      11 UNK        -0.1021 
     13 C13       -77.5532   28.7698  -70.7589 C.ar      11 UNK        -0.0753 
     14 C14       -78.7198   29.4858  -70.4730 C.ar      11 UNK        -0.0933 
     15 C15       -76.2725   29.5108  -71.1149 C.3       11 UNK         0.0166 
     16 S16       -76.2325   30.0364  -72.8571 S.3       11 UNK        -0.2615 
     17 C17       -74.7600   31.1227  -72.8362 C.3       11 UNK        -0.0865 
     18 CA        -73.5048   30.5469  -73.5458 C.3       10 UNK         0.0862 
     19 C         -72.8778   29.3281  -72.8013 C.2       10 UNK         0.5551 
     20 N         -72.5684   28.2180  -73.4618 N.am      10 UNK        -0.7319 
     21 O         -72.6437   29.4033  -71.5974 O.2       10 UNK        -0.5018 
     22 N         -73.7396   30.3476  -74.9831 N.am      10 UNK        -0.4509 
     23 C         -72.7841   30.3716  -75.9184 C.2       10 UNK         0.4899 
     24 O         -71.6081   30.6739  -75.7041 O.2       10 UNK        -0.4839 
     25 CA        -73.2229   30.0005  -77.3441 C.3       9 UNK         0.0222 
     26 CB        -73.3455   31.2613  -78.2152 C.3       9 UNK        -0.1966 
     27 N         -72.3054   29.0535  -77.9838 N.am      9 UNK        -0.4218 
     28 C         -71.9772   27.8429  -77.5109 C.2       9 UNK         0.5020 
     29 O         -72.4066   27.3635  -76.4568 O.2       9 UNK        -0.5274 
     30 CA        -70.9851   27.0390  -78.3582 C.3       8 UNK         0.0270 
     31 CB        -69.5362   27.4589  -78.0557 C.3       8 UNK        -0.1976 
     32 N         -71.1512   25.6217  -78.0519 N.am      8 UNK        -0.4313 
     33 C         -71.1474   24.6221  -78.9405 C.2       8 UNK         0.5041 
     34 O         -70.9445   24.7864  -80.1450 O.2       8 UNK        -0.5577 
     35 CA        -71.3922   23.1908  -78.4174 C.3       7 UNK         0.0284 
     36 CB        -70.1349   22.3246  -78.6094 C.3       7 UNK        -0.1958 
     37 N         -71.8014   23.1189  -77.0098 N.am      7 UNK        -0.4454 
     38 C         -73.0134   23.4446  -76.5443 C.2       7 UNK         0.5089 
     39 O         -73.9354   23.8533  -77.2537 O.2       7 UNK        -0.5125 
     40 CA        -73.2099   23.3071  -75.0291 C.3       6 UNK         0.0408 
     41 CB        -72.3743   24.3584  -74.2696 C.3       6 UNK        -0.1791 
     42 N         -74.6236   23.4831  -74.7132 N.am      6 UNK        -0.4762 
     43 C         -75.2250   23.1579  -73.5614 C.2       6 UNK         0.5007 
     44 O         -74.6573   22.5352  -72.6616 O.2       6 UNK        -0.5032 
     45 CA        -76.6943   23.6145  -73.3753 C.3       5 UNK         0.0783 
     46 C46       -77.0503   23.8324  -71.8790 C.3       11 UNK        -0.0857 
     47 S47       -78.7991   24.2829  -71.6197 S.3       11 UNK        -0.2512 
     48 C48       -78.7008   25.1893  -70.0473 C.3       11 UNK         0.0225 
     49 N         -77.0349   24.7629  -74.2264 N.am      5 UNK        -0.4615 
     50 C         -76.4972   25.9897  -74.1779 C.2       4 UNK         0.5053 
     51 O         -75.6511   26.3264  -73.3503 O.2       4 UNK        -0.5105 
     52 CA        -76.9521   27.0226  -75.2266 C.3       4 UNK         0.0263 
     53 CB        -75.7898   27.3986  -76.1633 C.3       4 UNK        -0.1981 
     54 N         -78.1514   26.6711  -75.9992 N.am      4 UNK        -0.4224 
     55 C         -78.3328   25.6814  -76.8851 C.2       3 UNK         0.4895 
     56 O         -77.4656   24.8630  -77.1928 O.2       3 UNK        -0.5091 
     57 CA        -79.7556   25.5604  -77.4647 C.3       3 UNK         0.0250 
     58 CB        -79.9137   24.3721  -78.4374 C.3       3 UNK        -0.1996 
     59 N         -80.7784   25.5068  -76.4105 N.am      3 UNK        -0.4254 
     60 C         -80.8674   24.6211  -75.4048 C.2       2 UNK         0.5004 
     61 O         -80.0865   23.6826  -75.2367 O.2       2 UNK        -0.5226 
     62 CA        -81.9959   24.8762  -74.3906 C.3       2 UNK         0.0269 
     63 CB        -82.1879   23.7191  -73.3929 C.3       2 UNK        -0.1926 
     64 N         -81.7085   26.1123  -73.6583 N.am      2 UNK        -0.4687 
     65 C         -82.1440   27.3203  -74.0378 C.2       1 UNK         0.5165 
     66 O         -82.9467   27.4894  -74.9602 O.2       1 UNK        -0.5079 
     67 H67       -79.4803   31.3872  -76.0344 H         1 UNK         0.0900 
     68 H68       -80.8298   30.8646  -77.0466 H         1 UNK         0.0900 
     69 H69       -81.1356   31.7991  -75.5803 H         1 UNK         0.0900 
     70 H70       -81.9047   30.5204  -73.9128 H         1 UNK         0.2959 
     71 H71       -80.6023   28.2715  -72.8846 H         1 UNK         0.1079 
     72 H72       -82.5979   28.0503  -71.3968 H         1 UNK         0.0837 
     73 H73       -83.5216   29.1044  -72.4332 H         1 UNK         0.0837 
     74 H74       -80.8579   30.4021  -69.0113 H         1 UNK         0.0685 
     75 H75       -81.8541   28.9815  -69.1843 H         1 UNK         0.0685 
     76 H76       -80.7715   26.9078  -69.6561 H         1 UNK         0.1434 
     77 H77       -76.6521   26.8221  -70.8523 H         1 UNK         0.1329 
     78 H78       -78.7174   30.5652  -70.5420 H         1 UNK         0.1335 
     79 H79       -75.4021   28.8842  -70.9133 H         1 UNK         0.0680 
     80 H80       -76.1788   30.3846  -70.4682 H         1 UNK         0.0680 
     81 H81       -75.0408   32.0616  -73.3158 H         1 UNK         0.1032 
     82 H82       -74.5142   31.3981  -71.8091 H         1 UNK         0.1032 
     83 H83       -72.7443   31.3259  -73.4634 H         1 UNK         0.0461 
     84 H84       -72.7197   28.1367  -74.4590 H         1 UNK         0.3453 
     85 H85       -72.1685   27.4471  -72.9535 H         1 UNK         0.3453 
     86 H86       -74.6802   30.0828  -75.2359 H         1 UNK         0.2984 
     87 H87       -74.2023   29.5237  -77.3012 H         1 UNK         0.0554 
     88 H88       -74.0422   31.9749  -77.7729 H         1 UNK         0.0847 
     89 H89       -73.7186   31.0237  -79.2116 H         1 UNK         0.0847 
     90 H90       -72.3869   31.7700  -78.3263 H         1 UNK         0.0847 
     91 H91       -71.8684   29.3663  -78.8385 H         1 UNK         0.3141 
     92 H92       -71.2069   27.2241  -79.4115 H         1 UNK         0.0743 
     93 H93       -69.2839   27.3047  -77.0056 H         1 UNK         0.0784 
     94 H94       -68.8265   26.8907  -78.6573 H         1 UNK         0.0784 
     95 H95       -69.3773   28.5148  -78.2781 H         1 UNK         0.0784 
     96 H96       -71.4214   25.4306  -77.0961 H         1 UNK         0.3213 
     97 H97       -72.1933   22.7648  -79.0256 H         1 UNK         0.0855 
     98 H98       -69.2931   22.6997  -78.0260 H         1 UNK         0.0814 
     99 H99       -69.8244   22.3108  -79.6552 H         1 UNK         0.0814 
    100 H100      -70.3151   21.2902  -78.3160 H         1 UNK         0.0814 
    101 H101      -71.1029   22.7938  -76.3561 H         1 UNK         0.3105 
    102 H102      -72.9002   22.3025  -74.7341 H         1 UNK         0.0547 
    103 H103      -72.4803   24.2501  -73.1903 H         1 UNK         0.0837 
    104 H104      -72.6809   25.3724  -74.5305 H         1 UNK         0.0837 
    105 H105      -71.3111   24.2686  -74.4938 H         1 UNK         0.0837 
    106 H106      -75.1565   23.9468  -75.4412 H         1 UNK         0.3020 
    107 H107      -77.3040   22.7857  -73.7392 H         1 UNK         0.1245 
    108 H108      -76.4065   24.5988  -71.4466 H         1 UNK         0.0781 
    109 H109      -76.8644   22.9230  -71.3047 H         1 UNK         0.0781 
    110 H110      -77.8078   24.8963  -69.4932 H         1 UNK         0.0836 
    111 H111      -79.5445   24.8853  -69.4259 H         1 UNK         0.0836 
    112 H112      -77.7059   24.5732  -74.9601 H         1 UNK         0.3022 
    113 H113      -77.2285   27.9154  -74.6651 H         1 UNK         0.0747 
    114 H114      -76.0893   28.1670  -76.8749 H         1 UNK         0.0793 
    115 H115      -74.9470   27.7849  -75.5904 H         1 UNK         0.0793 
    116 H116      -75.4232   26.5395  -76.7265 H         1 UNK         0.0793 
    117 H117      -78.9364   27.3044  -75.8373 H         1 UNK         0.3047 
    118 H118      -79.9361   26.4769  -78.0288 H         1 UNK         0.0822 
    119 H119      -80.9167   24.3380  -78.8625 H         1 UNK         0.0807 
    120 H120      -79.7251   23.4169  -77.9460 H         1 UNK         0.0807 
    121 H121      -79.2120   24.4531  -79.2685 H         1 UNK         0.0807 
    122 H122      -81.4455   26.2685  -76.4154 H         1 UNK         0.2946 
    123 H123      -82.9269   24.9723  -74.9548 H         1 UNK         0.1144 
    124 H124      -83.0083   23.9222  -72.7046 H         1 UNK         0.0793 
    125 H125      -81.2934   23.5339  -72.8007 H         1 UNK         0.0793 
    126 H126      -82.4260   22.7923  -73.9164 H         1 UNK         0.0793 
    127 H127      -81.0303   26.0388  -72.9121 H         1 UNK         0.2896 
@<TRIPOS>BOND
     1    1    2 1    
     2    1   67 1    
     3    1   68 1    
     4    1   69 1    
     5    2    3 2    
     6    2    4 am   BACKBONE|DICT|INTERRES
     7    4    5 1    
     8    4   70 1    
     9    5    6 1    
    10    5   65 1    
    11    5   71 1    
    12    6    7 1    
    13    6   72 1    
    14    6   73 1    
    15    7    8 1    
    16    8    9 1    
    17    8   74 1    
    18    8   75 1    
    19    9   10 ar   
    20    9   14 ar   
    21   10   11 ar   
    22   10   76 1    
    23   11   12 ar   
    24   11   48 1    
    25   12   13 ar   
    26   12   77 1    
    27   13   14 ar   
    28   13   15 1    
    29   14   78 1    
    30   15   16 1    
    31   15   79 1    
    32   15   80 1    
    33   16   17 1    
    34   17   18 1    
    35   17   81 1    
    36   17   82 1    
    37   18   19 1    
    38   18   22 1    
    39   18   83 1    
    40   19   20 am   BACKBONE|DICT|INTERRES
    41   19   21 2    
    42   20   84 1    
    43   20   85 1    
    44   22   23 am   BACKBONE|DICT|INTERRES
    45   22   86 1    
    46   23   24 2    
    47   23   25 1    
    48   25   26 1    
    49   25   27 1    
    50   25   87 1    
    51   26   88 1    
    52   26   89 1    
    53   26   90 1    
    54   27   28 am   BACKBONE|DICT|INTERRES
    55   27   91 1    
    56   28   29 2    
    57   28   30 1    
    58   30   31 1    
    59   30   32 1    
    60   30   92 1    
    61   31   93 1    
    62   31   94 1    
    63   31   95 1    
    64   32   33 am   BACKBONE|DICT|INTERRES
    65   32   96 1    
    66   33   34 2    
    67   33   35 1    
    68   35   36 1    
    69   35   37 1    
    70   35   97 1    
    71   36   98 1    
    72   36   99 1    
    73   36  100 1    
    74   37   38 am   BACKBONE|DICT|INTERRES
    75   37  101 1    
    76   38   39 2    
    77   38   40 1    
    78   40   41 1    
    79   40   42 1    
    80   40  102 1    
    81   41  103 1    
    82   41  104 1    
    83   41  105 1    
    84   42   43 am   BACKBONE|DICT|INTERRES
    85   42  106 1    
    86   43   44 2    
    87   43   45 1    
    88   45   46 1    
    89   45   49 1    
    90   45  107 1    
    91   46   47 1    
    92   46  108 1    
    93   46  109 1    
    94   47   48 1    
    95   48  110 1    
    96   48  111 1    
    97   49   50 am   BACKBONE|DICT|INTERRES
    98   49  112 1    
    99   50   51 2    
   100   50   52 1    
   101   52   53 1    
   102   52   54 1    
   103   52  113 1    
   104   53  114 1    
   105   53  115 1    
   106   53  116 1    
   107   54   55 am   BACKBONE|DICT|INTERRES
   108   54  117 1    
   109   55   56 2    
   110   55   57 1    
   111   57   58 1    
   112   57   59 1    
   113   57  118 1    
   114   58  119 1    
   115   58  120 1    
   116   58  121 1    
   117   59   60 am   BACKBONE|DICT|INTERRES
   118   59  122 1    
   119   60   61 2    
   120   60   62 1    
   121   62   63 1    
   122   62   64 1    
   123   62  123 1    
   124   63  124 1    
   125   63  125 1    
   126   63  126 1    
   127   64   65 am   BACKBONE|DICT|INTERRES
   128   64  127 1    
   129   65   66 2    
@<TRIPOS>SUBSTRUCTURE
     1 UNK         1 GROUP             0       ****    0 ROOT    
