@<TRIPOS>MOLECULE
3R135
127   129    1
SMALL
USER_CHARGES


@<TRIPOS>ATOM
      1 CA        -77.4549   25.7506  -70.3204 C.3       0 UNK        -0.1998 
      2 C         -78.9101   25.5121  -70.6903 C.2       0 UNK         0.4909 
      3 O         -79.5070   24.5384  -70.2298 O.2       0 UNK        -0.5240 
      4 N         -79.4776   26.3898  -71.5245 N.am      1 UNK        -0.4739 
      5 CA        -80.8538   26.2937  -72.0163 C.3       1 UNK         0.0864 
      6 C6        -81.5254   27.6844  -72.1463 C.3       11 UNK        -0.0881 
      7 S7        -81.5207   28.5936  -70.5597 S.3       11 UNK        -0.2682 
      8 C8        -80.8222   30.2174  -71.0132 C.3       11 UNK         0.0289 
      9 C9        -79.4583   30.1257  -71.6880 C.ar      11 UNK        -0.0687 
     10 C10       -79.3058   30.5618  -73.0086 C.ar      11 UNK        -0.0823 
     11 C11       -78.0641   30.4849  -73.6461 C.ar      11 UNK        -0.0830 
     12 C12       -76.9675   29.9780  -72.9453 C.ar      11 UNK        -0.1021 
     13 C13       -77.1015   29.5485  -71.6232 C.ar      11 UNK        -0.0753 
     14 C14       -78.3490   29.6268  -70.9955 C.ar      11 UNK        -0.0933 
     15 C15       -75.8878   28.9977  -70.8934 C.3       11 UNK         0.0166 
     16 S16       -74.7344   30.3280  -70.4412 S.3       11 UNK        -0.2615 
     17 C17       -73.1429   29.4344  -70.4433 C.3       11 UNK        -0.0865 
     18 CA        -72.2730   29.7998  -71.6744 C.3       10 UNK         0.0862 
     19 C         -70.8598   29.1749  -71.5538 C.2       10 UNK         0.5551 
     20 N         -69.8523   29.9679  -71.2172 N.am      10 UNK        -0.7319 
     21 O         -70.6826   27.9696  -71.7186 O.2       10 UNK        -0.5018 
     22 N         -72.9020   29.3889  -72.9379 N.am      10 UNK        -0.4509 
     23 C         -72.7186   30.0103  -74.1095 C.2       10 UNK         0.4899 
     24 O         -72.0960   31.0664  -74.2354 O.2       10 UNK        -0.4839 
     25 CA        -73.3329   29.3214  -75.3455 C.3       9 UNK         0.0222 
     26 CB        -72.9445   30.0060  -76.6733 C.3       9 UNK        -0.1966 
     27 N         -73.0356   27.8843  -75.3977 N.am      9 UNK        -0.4218 
     28 C         -71.8236   27.3069  -75.4394 C.2       9 UNK         0.5020 
     29 O         -70.7584   27.9241  -75.4690 O.2       9 UNK        -0.5274 
     30 CA        -71.7953   25.7740  -75.4663 C.3       8 UNK         0.0270 
     31 CB        -72.1080   25.1979  -74.0734 C.3       8 UNK        -0.1976 
     32 N         -72.7502   25.2475  -76.4451 N.am      8 UNK        -0.4313 
     33 C         -72.4116   24.6090  -77.5716 C.2       8 UNK         0.5041 
     34 O         -71.2485   24.3932  -77.9169 O.2       8 UNK        -0.5577 
     35 CA        -73.5541   24.0970  -78.4641 C.3       7 UNK         0.0284 
     36 CB        -74.0316   22.7146  -77.9900 C.3       7 UNK        -0.1958 
     37 N         -74.7018   25.0022  -78.5592 N.am      7 UNK        -0.4454 
     38 C         -74.7036   26.1536  -79.2461 C.2       7 UNK         0.5089 
     39 O         -73.7034   26.6405  -79.7735 O.2       7 UNK        -0.5125 
     40 CA        -76.0571   26.8649  -79.4019 C.3       6 UNK         0.0408 
     41 CB        -76.9265   26.1507  -80.4501 C.3       6 UNK        -0.1791 
     42 N         -76.7778   26.9260  -78.1310 N.am      6 UNK        -0.4762 
     43 C         -76.7194   27.9634  -77.2836 C.2       6 UNK         0.5007 
     44 O         -76.1079   29.0036  -77.5258 O.2       6 UNK        -0.5032 
     45 CA        -77.4218   27.8062  -75.9148 C.3       5 UNK         0.0783 
     46 C46       -78.8598   28.3863  -75.9123 C.3       11 UNK        -0.0857 
     47 S47       -79.0386   30.1719  -76.2601 S.3       11 UNK        -0.2512 
     48 C48       -77.8912   30.9654  -75.0826 C.3       11 UNK         0.0225 
     49 N         -77.4302   26.4219  -75.4283 N.am      5 UNK        -0.4615 
     50 C         -76.3410   25.6802  -75.1919 C.2       4 UNK         0.5053 
     51 O         -75.1926   26.1096  -75.2942 O.2       4 UNK        -0.5105 
     52 CA        -76.5514   24.1984  -74.8422 C.3       4 UNK         0.0263 
     53 CB        -76.6634   24.0122  -73.3254 C.3       4 UNK        -0.1981 
     54 N         -77.7146   23.5872  -75.4914 N.am      4 UNK        -0.4224 
     55 C         -77.9324   23.5051  -76.8099 C.2       3 UNK         0.4895 
     56 O         -77.1664   23.9704  -77.6540 O.2       3 UNK        -0.5091 
     57 CA        -79.2338   22.8258  -77.2740 C.3       3 UNK         0.0250 
     58 CB        -79.1074   21.2905  -77.2333 C.3       3 UNK        -0.1996 
     59 N         -80.4400   23.3013  -76.5776 N.am      3 UNK        -0.4254 
     60 C         -80.7768   23.1553  -75.2877 C.2       2 UNK         0.5004 
     61 O         -80.1301   22.4963  -74.4696 O.2       2 UNK        -0.5226 
     62 CA        -82.0345   23.9130  -74.8248 C.3       2 UNK         0.0269 
     63 CB        -83.2084   22.9390  -74.6339 C.3       2 UNK        -0.1926 
     64 N         -81.8260   24.6697  -73.5830 N.am      2 UNK        -0.4687 
     65 C         -80.8493   25.5649  -73.3716 C.2       1 UNK         0.5165 
     66 O         -79.9891   25.8519  -74.2088 O.2       1 UNK        -0.5079 
     67 H67       -77.3903   26.3015  -69.3826 H         1 UNK         0.0900 
     68 H68       -76.9346   24.8012  -70.1954 H         1 UNK         0.0900 
     69 H69       -76.9373   26.3141  -71.0954 H         1 UNK         0.0900 
     70 H70       -78.9421   27.1628  -71.8933 H         1 UNK         0.2959 
     71 H71       -81.4479   25.7063  -71.3123 H         1 UNK         0.1079 
     72 H72       -81.0376   28.2775  -72.9211 H         1 UNK         0.0837 
     73 H73       -82.5640   27.5752  -72.4640 H         1 UNK         0.0837 
     74 H74       -80.7297   30.8228  -70.1106 H         1 UNK         0.0685 
     75 H75       -81.5374   30.7353  -71.6542 H         1 UNK         0.0685 
     76 H76       -80.1556   30.9576  -73.5481 H         1 UNK         0.1434 
     77 H77       -75.9978   29.9279  -73.4201 H         1 UNK         0.1329 
     78 H78       -78.4621   29.2969  -69.9717 H         1 UNK         0.1335 
     79 H79       -75.3905   28.2728  -71.5392 H         1 UNK         0.0680 
     80 H80       -76.1817   28.4639  -69.9888 H         1 UNK         0.0680 
     81 H81       -73.3084   28.3569  -70.3840 H         1 UNK         0.1032 
     82 H82       -72.6215   29.7045  -69.5228 H         1 UNK         0.1032 
     83 H83       -72.1645   30.8868  -71.6788 H         1 UNK         0.0461 
     84 H84       -68.9298   29.5733  -71.1187 H         1 UNK         0.3453 
     85 H85       -69.9924   30.9561  -71.0732 H         1 UNK         0.3453 
     86 H86       -73.3682   28.4951  -72.9314 H         1 UNK         0.2984 
     87 H87       -74.4148   29.4051  -75.2395 H         1 UNK         0.0554 
     88 H88       -73.2885   31.0407  -76.6934 H         1 UNK         0.0847 
     89 H89       -73.3952   29.4994  -77.5269 H         1 UNK         0.0847 
     90 H90       -71.8647   30.0184  -76.8242 H         1 UNK         0.0847 
     91 H91       -73.8472   27.2688  -75.3581 H         1 UNK         0.3141 
     92 H92       -70.7779   25.4730  -75.7250 H         1 UNK         0.0743 
     93 H93       -71.4099   25.5829  -73.3285 H         1 UNK         0.0784 
     94 H94       -73.1135   25.4517  -73.7372 H         1 UNK         0.0784 
     95 H95       -72.0202   24.1115  -74.0687 H         1 UNK         0.0784 
     96 H96       -73.7331   25.4153  -76.2491 H         1 UNK         0.3213 
     97 H97       -73.1467   23.9776  -79.4707 H         1 UNK         0.0855 
     98 H98       -74.4653   22.7554  -76.9913 H         1 UNK         0.0814 
     99 H99       -73.2030   22.0059  -77.9565 H         1 UNK         0.0814 
    100 H100      -74.7833   22.3021  -78.6633 H         1 UNK         0.0814 
    101 H101      -75.5858   24.6573  -78.1884 H         1 UNK         0.3105 
    102 H102      -75.8641   27.8748  -79.7704 H         1 UNK         0.0547 
    103 H103      -77.1695   25.1294  -80.1547 H         1 UNK         0.0837 
    104 H104      -76.4127   26.0978  -81.4109 H         1 UNK         0.0837 
    105 H105      -77.8636   26.6826  -80.6140 H         1 UNK         0.0837 
    106 H106      -77.2473   26.0784  -77.8351 H         1 UNK         0.3020 
    107 H107      -76.8198   28.3668  -75.2012 H         1 UNK         0.1245 
    108 H108      -79.3125   28.2216  -74.9343 H         1 UNK         0.0781 
    109 H109      -79.4859   27.8406  -76.6204 H         1 UNK         0.0781 
    110 H110      -78.0529   32.0437  -75.1127 H         1 UNK         0.0836 
    111 H111      -76.8688   30.8065  -75.4289 H         1 UNK         0.0836 
    112 H112      -78.3438   26.0209  -75.2324 H         1 UNK         0.3022 
    113 H113      -75.6658   23.6603  -75.1825 H         1 UNK         0.0747 
    114 H114      -77.5949   24.4338  -72.9516 H         1 UNK         0.0793 
    115 H115      -76.6427   22.9569  -73.0532 H         1 UNK         0.0793 
    116 H116      -75.8390   24.4995  -72.8026 H         1 UNK         0.0793 
    117 H117      -78.4316   23.1937  -74.8857 H         1 UNK         0.3047 
    118 H118      -79.3703   23.1090  -78.3191 H         1 UNK         0.0822 
    119 H119      -80.0038   20.8092  -77.6244 H         1 UNK         0.0807 
    120 H120      -78.9400   20.9163  -76.2231 H         1 UNK         0.0807 
    121 H121      -78.2674   20.9554  -77.8433 H         1 UNK         0.0807 
    122 H122      -81.0431   23.8789  -77.1476 H         1 UNK         0.2946 
    123 H123      -82.3095   24.6366  -75.5953 H         1 UNK         0.1144 
    124 H124      -84.1276   23.4668  -74.3787 H         1 UNK         0.0793 
    125 H125      -83.0052   22.2145  -73.8440 H         1 UNK         0.0793 
    126 H126      -83.4032   22.3769  -75.5484 H         1 UNK         0.0793 
    127 H127      -82.4786   24.4817  -72.8358 H         1 UNK         0.2896 
@<TRIPOS>BOND
     1    1    2 1    
     2    1   67 1    
     3    1   68 1    
     4    1   69 1    
     5    2    3 2    
     6    2    4 am   BACKBONE|DICT|INTERRES
     7    4    5 1    
     8    4   70 1    
     9    5    6 1    
    10    5   65 1    
    11    5   71 1    
    12    6    7 1    
    13    6   72 1    
    14    6   73 1    
    15    7    8 1    
    16    8    9 1    
    17    8   74 1    
    18    8   75 1    
    19    9   10 ar   
    20    9   14 ar   
    21   10   11 ar   
    22   10   76 1    
    23   11   12 ar   
    24   11   48 1    
    25   12   13 ar   
    26   12   77 1    
    27   13   14 ar   
    28   13   15 1    
    29   14   78 1    
    30   15   16 1    
    31   15   79 1    
    32   15   80 1    
    33   16   17 1    
    34   17   18 1    
    35   17   81 1    
    36   17   82 1    
    37   18   19 1    
    38   18   22 1    
    39   18   83 1    
    40   19   20 am   BACKBONE|DICT|INTERRES
    41   19   21 2    
    42   20   84 1    
    43   20   85 1    
    44   22   23 am   BACKBONE|DICT|INTERRES
    45   22   86 1    
    46   23   24 2    
    47   23   25 1    
    48   25   26 1    
    49   25   27 1    
    50   25   87 1    
    51   26   88 1    
    52   26   89 1    
    53   26   90 1    
    54   27   28 am   BACKBONE|DICT|INTERRES
    55   27   91 1    
    56   28   29 2    
    57   28   30 1    
    58   30   31 1    
    59   30   32 1    
    60   30   92 1    
    61   31   93 1    
    62   31   94 1    
    63   31   95 1    
    64   32   33 am   BACKBONE|DICT|INTERRES
    65   32   96 1    
    66   33   34 2    
    67   33   35 1    
    68   35   36 1    
    69   35   37 1    
    70   35   97 1    
    71   36   98 1    
    72   36   99 1    
    73   36  100 1    
    74   37   38 am   BACKBONE|DICT|INTERRES
    75   37  101 1    
    76   38   39 2    
    77   38   40 1    
    78   40   41 1    
    79   40   42 1    
    80   40  102 1    
    81   41  103 1    
    82   41  104 1    
    83   41  105 1    
    84   42   43 am   BACKBONE|DICT|INTERRES
    85   42  106 1    
    86   43   44 2    
    87   43   45 1    
    88   45   46 1    
    89   45   49 1    
    90   45  107 1    
    91   46   47 1    
    92   46  108 1    
    93   46  109 1    
    94   47   48 1    
    95   48  110 1    
    96   48  111 1    
    97   49   50 am   BACKBONE|DICT|INTERRES
    98   49  112 1    
    99   50   51 2    
   100   50   52 1    
   101   52   53 1    
   102   52   54 1    
   103   52  113 1    
   104   53  114 1    
   105   53  115 1    
   106   53  116 1    
   107   54   55 am   BACKBONE|DICT|INTERRES
   108   54  117 1    
   109   55   56 2    
   110   55   57 1    
   111   57   58 1    
   112   57   59 1    
   113   57  118 1    
   114   58  119 1    
   115   58  120 1    
   116   58  121 1    
   117   59   60 am   BACKBONE|DICT|INTERRES
   118   59  122 1    
   119   60   61 2    
   120   60   62 1    
   121   62   63 1    
   122   62   64 1    
   123   62  123 1    
   124   63  124 1    
   125   63  125 1    
   126   63  126 1    
   127   64   65 am   BACKBONE|DICT|INTERRES
   128   64  127 1    
   129   65   66 2    
@<TRIPOS>SUBSTRUCTURE
     1 UNK         1 GROUP             0       ****    0 ROOT    
