@<TRIPOS>MOLECULE
3R135
127   129    1
SMALL
USER_CHARGES


@<TRIPOS>ATOM
      1 CA        -75.8251   21.3439  -73.2747 C.3       0 UNK        -0.1998 
      2 C         -76.6524   22.2116  -72.3374 C.2       0 UNK         0.4909 
      3 O         -76.2874   22.3794  -71.1736 O.2       0 UNK        -0.5240 
      4 N         -77.7641   22.7585  -72.8357 N.am      1 UNK        -0.4739 
      5 CA        -78.7133   23.5885  -72.0989 C.3       1 UNK         0.0864 
      6 C6        -78.2420   25.0650  -71.9917 C.3       11 UNK        -0.0881 
      7 S7        -78.7951   25.8494  -70.4391 S.3       11 UNK        -0.2682 
      8 C8        -79.9718   27.1177  -71.0285 C.3       11 UNK         0.0289 
      9 C9        -79.3527   28.2083  -71.9000 C.ar      11 UNK        -0.0687 
     10 C10       -80.1043   28.7599  -72.9422 C.ar      11 UNK        -0.0823 
     11 C11       -79.5754   29.7730  -73.7476 C.ar      11 UNK        -0.0830 
     12 C12       -78.2770   30.2349  -73.5102 C.ar      11 UNK        -0.1021 
     13 C13       -77.5146   29.6923  -72.4724 C.ar      11 UNK        -0.0753 
     14 C14       -78.0609   28.6919  -71.6644 C.ar      11 UNK        -0.0933 
     15 C15       -76.0965   30.1740  -72.2192 C.3       11 UNK         0.0166 
     16 S16       -74.8955   29.0706  -73.0203 S.3       11 UNK        -0.2615 
     17 C17       -73.3286   29.6782  -72.3118 C.3       11 UNK        -0.0865 
     18 CA        -72.5338   30.5817  -73.2879 C.3       10 UNK         0.0862 
     19 C         -71.3474   31.2541  -72.5432 C.2       10 UNK         0.5551 
     20 N         -71.4779   32.5236  -72.1825 N.am      10 UNK        -0.7319 
     21 O         -70.3371   30.6209  -72.2445 O.2       10 UNK        -0.5018 
     22 N         -72.0976   29.8435  -74.4846 N.am      10 UNK        -0.4509 
     23 C         -71.5170   30.4080  -75.5553 C.2       10 UNK         0.4899 
     24 O         -71.3720   31.6256  -75.6797 O.2       10 UNK        -0.4839 
     25 CA        -71.0387   29.4792  -76.6942 C.3       9 UNK         0.0222 
     26 CB        -69.8746   30.0831  -77.5084 C.3       9 UNK        -0.1966 
     27 N         -70.7186   28.1156  -76.2608 N.am      9 UNK        -0.4218 
     28 C         -69.7988   27.7269  -75.3628 C.2       9 UNK         0.5020 
     29 O         -68.9720   28.4871  -74.8567 O.2       9 UNK        -0.5274 
     30 CA        -69.8109   26.2351  -74.9531 C.3       8 UNK         0.0270 
     31 CB        -69.3629   26.0279  -73.4904 C.3       8 UNK        -0.1976 
     32 N         -71.0943   25.5559  -75.1980 N.am      8 UNK        -0.4313 
     33 C         -72.2977   25.9039  -74.7163 C.2       8 UNK         0.5041 
     34 O         -72.4808   26.8411  -73.9396 O.2       8 UNK        -0.5577 
     35 CA        -73.5049   25.1207  -75.2657 C.3       7 UNK         0.0284 
     36 CB        -74.4627   24.7214  -74.1304 C.3       7 UNK        -0.1958 
     37 N         -74.2563   25.8699  -76.2828 N.am      7 UNK        -0.4454 
     38 C         -73.7514   26.4511  -77.3848 C.2       7 UNK         0.5089 
     39 O         -72.5575   26.4180  -77.6856 O.2       7 UNK        -0.5125 
     40 CA        -74.7176   27.1775  -78.3417 C.3       6 UNK         0.0408 
     41 CB        -74.7574   26.4666  -79.7048 C.3       6 UNK        -0.1791 
     42 N         -76.0839   27.2883  -77.8324 N.am      6 UNK        -0.4762 
     43 C         -76.5054   28.1674  -76.9123 C.2       6 UNK         0.5007 
     44 O         -75.7886   29.0537  -76.4502 O.2       6 UNK        -0.5032 
     45 CA        -77.9711   28.0426  -76.4340 C.3       5 UNK         0.0783 
     46 C46       -78.7944   29.2655  -76.9109 C.3       11 UNK        -0.0857 
     47 S47       -80.5144   29.2431  -76.3015 S.3       11 UNK        -0.2512 
     48 C48       -80.4124   30.3650  -74.8718 C.3       11 UNK         0.0225 
     49 N         -78.6082   26.7755  -76.8237 N.am      5 UNK        -0.4615 
     50 C         -78.2568   25.5593  -76.3930 C.2       4 UNK         0.5053 
     51 O         -77.3396   25.3586  -75.5972 O.2       4 UNK        -0.5105 
     52 CA        -79.0483   24.3830  -76.9862 C.3       4 UNK         0.0263 
     53 CB        -78.3707   23.0236  -76.7325 C.3       4 UNK        -0.1981 
     54 N         -80.4198   24.3619  -76.4726 N.am      4 UNK        -0.4224 
     55 C         -81.4242   25.1011  -76.9696 C.2       3 UNK         0.4895 
     56 O         -81.2768   25.8867  -77.9077 O.2       3 UNK        -0.5091 
     57 CA        -82.8292   24.9403  -76.3578 C.3       3 UNK         0.0250 
     58 CB        -83.7367   24.1421  -77.3087 C.3       3 UNK        -0.1996 
     59 N         -82.8291   24.2880  -75.0474 N.am      3 UNK        -0.4254 
     60 C         -82.5627   24.9072  -73.8906 C.2       2 UNK         0.5004 
     61 O         -82.3304   26.1124  -73.7975 O.2       2 UNK        -0.5226 
     62 CA        -82.5164   24.0398  -72.6162 C.3       2 UNK         0.0269 
     63 CB        -83.1621   22.6428  -72.7706 C.3       2 UNK        -0.1926 
     64 N         -81.1426   23.9250  -72.1108 N.am      2 UNK        -0.4687 
     65 C         -80.0825   23.4634  -72.7886 C.2       1 UNK         0.5165 
     66 O         -80.1552   22.9747  -73.9210 O.2       1 UNK        -0.5079 
     67 H67       -74.7863   21.6724  -73.2737 H         1 UNK         0.0900 
     68 H68       -76.1922   21.3883  -74.3001 H         1 UNK         0.0900 
     69 H69       -75.8536   20.3052  -72.9467 H         1 UNK         0.0900 
     70 H70       -78.0677   22.5531  -73.7795 H         1 UNK         0.2959 
     71 H71       -78.8155   23.1566  -71.1004 H         1 UNK         0.1079 
     72 H72       -77.1519   25.1140  -71.9837 H         1 UNK         0.0837 
     73 H73       -78.5448   25.6541  -72.8607 H         1 UNK         0.0837 
     74 H74       -80.7807   26.6227  -71.5656 H         1 UNK         0.0685 
     75 H75       -80.4278   27.5938  -70.1598 H         1 UNK         0.0685 
     76 H76       -81.1062   28.3988  -73.1331 H         1 UNK         0.1434 
     77 H77       -77.8550   31.0089  -74.1367 H         1 UNK         0.1329 
     78 H78       -77.4676   28.2824  -70.8587 H         1 UNK         0.1335 
     79 H79       -75.9607   31.1902  -72.5923 H         1 UNK         0.0680 
     80 H80       -75.9102   30.2070  -71.1446 H         1 UNK         0.0680 
     81 H81       -72.7271   28.8131  -72.0252 H         1 UNK         0.1032 
     82 H82       -73.5431   30.2088  -71.3821 H         1 UNK         0.1032 
     83 H83       -73.2070   31.3700  -73.6314 H         1 UNK         0.0461 
     84 H84       -70.7259   32.9712  -71.6823 H         1 UNK         0.3453 
     85 H85       -72.3054   33.0496  -72.4177 H         1 UNK         0.3453 
     86 H86       -72.1869   28.8331  -74.4339 H         1 UNK         0.2984 
     87 H87       -71.8902   29.3788  -77.3685 H         1 UNK         0.0554 
     88 H88       -69.5678   29.4183  -78.3156 H         1 UNK         0.0847 
     89 H89       -69.0026   30.2778  -76.8836 H         1 UNK         0.0847 
     90 H90       -70.1637   31.0304  -77.9649 H         1 UNK         0.0847 
     91 H91       -71.3297   27.3963  -76.6428 H         1 UNK         0.3141 
     92 H92       -69.0794   25.7437  -75.5961 H         1 UNK         0.0743 
     93 H93       -70.0139   26.5546  -72.7919 H         1 UNK         0.0784 
     94 H94       -69.3644   24.9721  -73.2200 H         1 UNK         0.0784 
     95 H95       -68.3497   26.3993  -73.3327 H         1 UNK         0.0784 
     96 H96       -71.0607   24.8087  -75.8788 H         1 UNK         0.3213 
     97 H97       -73.1414   24.2043  -75.7345 H         1 UNK         0.0855 
     98 H98       -74.9370   25.5942  -73.6784 H         1 UNK         0.0814 
     99 H99       -73.9349   24.1900  -73.3375 H         1 UNK         0.0814 
    100 H100      -75.2528   24.0645  -74.4929 H         1 UNK         0.0814 
    101 H101      -75.2527   25.9519  -76.1187 H         1 UNK         0.3105 
    102 H102      -74.3218   28.1835  -78.4959 H         1 UNK         0.0547 
    103 H103      -73.7612   26.4086  -80.1458 H         1 UNK         0.0837 
    104 H104      -75.1339   25.4465  -79.6185 H         1 UNK         0.0837 
    105 H105      -75.3900   27.0007  -80.4138 H         1 UNK         0.0837 
    106 H106      -76.7484   26.6056  -78.1663 H         1 UNK         0.3020 
    107 H107      -77.9309   28.0559  -75.3424 H         1 UNK         0.1245 
    108 H108      -78.8280   29.2973  -78.0015 H         1 UNK         0.0781 
    109 H109      -78.3204   30.1982  -76.5989 H         1 UNK         0.0781 
    110 H110      -81.4215   30.5600  -74.5057 H         1 UNK         0.0836 
    111 H111      -80.0146   31.3299  -75.1901 H         1 UNK         0.0836 
    112 H112      -79.4206   26.8481  -77.4264 H         1 UNK         0.3022 
    113 H113      -79.0775   24.5229  -78.0692 H         1 UNK         0.0747 
    114 H114      -78.9431   22.2063  -77.1713 H         1 UNK         0.0793 
    115 H115      -77.3752   22.9986  -77.1777 H         1 UNK         0.0793 
    116 H116      -78.2514   22.8169  -75.6710 H         1 UNK         0.0793 
    117 H117      -80.5798   23.7894  -75.6483 H         1 UNK         0.3047 
    118 H118      -83.2498   25.9430  -76.2510 H         1 UNK         0.0822 
    119 H119      -84.7555   24.0792  -76.9258 H         1 UNK         0.0807 
    120 H120      -83.3700   23.1260  -77.4602 H         1 UNK         0.0807 
    121 H121      -83.7907   24.6185  -78.2889 H         1 UNK         0.0807 
    122 H122      -82.9806   23.2896  -75.0332 H         1 UNK         0.2946 
    123 H123      -83.0874   24.5844  -71.8620 H         1 UNK         0.1144 
    124 H124      -84.1942   22.7221  -73.1153 H         1 UNK         0.0793 
    125 H125      -83.1877   22.1207  -71.8140 H         1 UNK         0.0793 
    126 H126      -82.6243   22.0058  -73.4734 H         1 UNK         0.0793 
    127 H127      -80.9787   24.3297  -71.1989 H         1 UNK         0.2896 
@<TRIPOS>BOND
     1    1    2 1    
     2    1   67 1    
     3    1   68 1    
     4    1   69 1    
     5    2    3 2    
     6    2    4 am   BACKBONE|DICT|INTERRES
     7    4    5 1    
     8    4   70 1    
     9    5    6 1    
    10    5   65 1    
    11    5   71 1    
    12    6    7 1    
    13    6   72 1    
    14    6   73 1    
    15    7    8 1    
    16    8    9 1    
    17    8   74 1    
    18    8   75 1    
    19    9   10 ar   
    20    9   14 ar   
    21   10   11 ar   
    22   10   76 1    
    23   11   12 ar   
    24   11   48 1    
    25   12   13 ar   
    26   12   77 1    
    27   13   14 ar   
    28   13   15 1    
    29   14   78 1    
    30   15   16 1    
    31   15   79 1    
    32   15   80 1    
    33   16   17 1    
    34   17   18 1    
    35   17   81 1    
    36   17   82 1    
    37   18   19 1    
    38   18   22 1    
    39   18   83 1    
    40   19   20 am   BACKBONE|DICT|INTERRES
    41   19   21 2    
    42   20   84 1    
    43   20   85 1    
    44   22   23 am   BACKBONE|DICT|INTERRES
    45   22   86 1    
    46   23   24 2    
    47   23   25 1    
    48   25   26 1    
    49   25   27 1    
    50   25   87 1    
    51   26   88 1    
    52   26   89 1    
    53   26   90 1    
    54   27   28 am   BACKBONE|DICT|INTERRES
    55   27   91 1    
    56   28   29 2    
    57   28   30 1    
    58   30   31 1    
    59   30   32 1    
    60   30   92 1    
    61   31   93 1    
    62   31   94 1    
    63   31   95 1    
    64   32   33 am   BACKBONE|DICT|INTERRES
    65   32   96 1    
    66   33   34 2    
    67   33   35 1    
    68   35   36 1    
    69   35   37 1    
    70   35   97 1    
    71   36   98 1    
    72   36   99 1    
    73   36  100 1    
    74   37   38 am   BACKBONE|DICT|INTERRES
    75   37  101 1    
    76   38   39 2    
    77   38   40 1    
    78   40   41 1    
    79   40   42 1    
    80   40  102 1    
    81   41  103 1    
    82   41  104 1    
    83   41  105 1    
    84   42   43 am   BACKBONE|DICT|INTERRES
    85   42  106 1    
    86   43   44 2    
    87   43   45 1    
    88   45   46 1    
    89   45   49 1    
    90   45  107 1    
    91   46   47 1    
    92   46  108 1    
    93   46  109 1    
    94   47   48 1    
    95   48  110 1    
    96   48  111 1    
    97   49   50 am   BACKBONE|DICT|INTERRES
    98   49  112 1    
    99   50   51 2    
   100   50   52 1    
   101   52   53 1    
   102   52   54 1    
   103   52  113 1    
   104   53  114 1    
   105   53  115 1    
   106   53  116 1    
   107   54   55 am   BACKBONE|DICT|INTERRES
   108   54  117 1    
   109   55   56 2    
   110   55   57 1    
   111   57   58 1    
   112   57   59 1    
   113   57  118 1    
   114   58  119 1    
   115   58  120 1    
   116   58  121 1    
   117   59   60 am   BACKBONE|DICT|INTERRES
   118   59  122 1    
   119   60   61 2    
   120   60   62 1    
   121   62   63 1    
   122   62   64 1    
   123   62  123 1    
   124   63  124 1    
   125   63  125 1    
   126   63  126 1    
   127   64   65 am   BACKBONE|DICT|INTERRES
   128   64  127 1    
   129   65   66 2    
@<TRIPOS>SUBSTRUCTURE
     1 UNK         1 GROUP             0       ****    0 ROOT    
