@<TRIPOS>MOLECULE
3R135
127   129    1
SMALL
USER_CHARGES


@<TRIPOS>ATOM
      1 CA        -82.2355   21.7292  -71.9432 C.3       0 UNK        -0.1998 
      2 C         -82.6373   23.1538  -72.2928 C.2       0 UNK         0.4909 
      3 O         -83.7485   23.3793  -72.7752 O.2       0 UNK        -0.5240 
      4 N         -81.7432   24.1204  -72.0518 N.am      1 UNK        -0.4739 
      5 CA        -81.9061   25.5392  -72.3826 C.3       1 UNK         0.0864 
      6 C6        -81.0374   26.4489  -71.4722 C.3       11 UNK        -0.0881 
      7 S7        -79.2804   25.9552  -71.3152 S.3       11 UNK        -0.2682 
      8 C8        -78.6685   27.1631  -70.0936 C.3       11 UNK         0.0289 
      9 C9        -77.9061   28.3232  -70.7268 C.ar      11 UNK        -0.0687 
     10 C10       -78.4710   29.0723  -71.7626 C.ar      11 UNK        -0.0823 
     11 C11       -77.7806   30.1447  -72.3296 C.ar      11 UNK        -0.0830 
     12 C12       -76.5235   30.4950  -71.8306 C.ar      11 UNK        -0.1021 
     13 C13       -75.9460   29.7621  -70.7894 C.ar      11 UNK        -0.0753 
     14 C14       -76.6382   28.6724  -70.2493 C.ar      11 UNK        -0.0933 
     15 C15       -74.5891   30.1594  -70.2258 C.3       11 UNK         0.0166 
     16 S16       -73.2286   29.7026  -71.3437 S.3       11 UNK        -0.2615 
     17 C17       -72.8426   31.3181  -72.1092 C.3       11 UNK        -0.0865 
     18 CA        -71.6652   31.2652  -73.1163 C.3       10 UNK         0.0862 
     19 C         -70.2969   31.0124  -72.4121 C.2       10 UNK         0.5551 
     20 N         -69.6042   29.9068  -72.6643 N.am      10 UNK        -0.7319 
     21 O         -69.8512   31.8480  -71.6292 O.2       10 UNK        -0.5018 
     22 N         -71.9682   30.3626  -74.2339 N.am      10 UNK        -0.4509 
     23 C         -71.3292   30.3454  -75.4097 C.2       10 UNK         0.4899 
     24 O         -70.4970   31.1892  -75.7465 O.2       10 UNK        -0.4839 
     25 CA        -71.6762   29.1843  -76.3629 C.3       9 UNK         0.0222 
     26 CB        -70.5168   28.8373  -77.3200 C.3       9 UNK        -0.1966 
     27 N         -72.1519   27.9780  -75.6727 N.am      9 UNK        -0.4218 
     28 C         -71.4988   27.2411  -74.7599 C.2       9 UNK         0.5020 
     29 O         -70.3792   27.5152  -74.3240 O.2       9 UNK        -0.5274 
     30 CA        -72.2272   25.9944  -74.2299 C.3       8 UNK         0.0270 
     31 CB        -73.1184   26.3605  -73.0324 C.3       8 UNK        -0.1976 
     32 N         -73.0340   25.3324  -75.2584 N.am      8 UNK        -0.4313 
     33 C         -72.5273   24.6640  -76.3051 C.2       8 UNK         0.5041 
     34 O         -71.3241   24.4577  -76.4702 O.2       8 UNK        -0.5577 
     35 CA        -73.5270   24.1544  -77.3575 C.3       7 UNK         0.0284 
     36 CB        -74.1933   22.8496  -76.8938 C.3       7 UNK        -0.1958 
     37 N         -74.5515   25.1484  -77.6863 N.am      7 UNK        -0.4454 
     38 C         -74.3105   26.3106  -78.3099 C.2       7 UNK         0.5089 
     39 O         -73.2062   26.6460  -78.7370 O.2       7 UNK        -0.5125 
     40 CA        -75.4966   27.2762  -78.4675 C.3       6 UNK         0.0408 
     41 CB        -76.2860   26.9682  -79.7496 C.3       6 UNK        -0.1791 
     42 N         -76.3998   27.2643  -77.3143 N.am      6 UNK        -0.4762 
     43 C         -76.0846   27.7337  -76.0976 C.2       6 UNK         0.5007 
     44 O         -74.9846   28.2087  -75.8142 O.2       6 UNK        -0.5032 
     45 CA        -77.1723   27.6099  -75.0064 C.3       5 UNK         0.0783 
     46 C46       -78.3017   28.6552  -75.2097 C.3       11 UNK        -0.0857 
     47 S47       -77.7320   30.3903  -75.0878 S.3       11 UNK        -0.2512 
     48 C48       -78.3993   30.9225  -73.4801 C.3       11 UNK         0.0225 
     49 N         -77.7141   26.2455  -74.9329 N.am      5 UNK        -0.4615 
     50 C         -76.9854   25.1333  -74.7445 C.2       4 UNK         0.5053 
     51 O         -75.7771   25.1377  -74.5142 O.2       4 UNK        -0.5105 
     52 CA        -77.6960   23.7796  -74.9242 C.3       4 UNK         0.0263 
     53 CB        -78.3701   23.3203  -73.6251 C.3       4 UNK        -0.1981 
     54 N         -78.6798   23.7813  -76.0069 N.am      4 UNK        -0.4224 
     55 C         -78.4336   24.0416  -77.2967 C.2       3 UNK         0.4895 
     56 O         -77.3072   24.2648  -77.7383 O.2       3 UNK        -0.5091 
     57 CA        -79.6405   24.1181  -78.2531 C.3       3 UNK         0.0250 
     58 CB        -79.9729   22.7328  -78.8405 C.3       3 UNK        -0.1996 
     59 N         -80.8291   24.7733  -77.6777 N.am      3 UNK        -0.4254 
     60 C         -81.5978   24.3554  -76.6618 C.2       2 UNK         0.5004 
     61 O         -81.4619   23.2685  -76.0941 O.2       2 UNK        -0.5226 
     62 CA        -82.6635   25.3384  -76.1543 C.3       2 UNK         0.0269 
     63 CB        -84.0518   24.9604  -76.6936 C.3       2 UNK        -0.1926 
     64 N         -82.6985   25.3454  -74.6904 N.am      2 UNK        -0.4687 
     65 C         -81.7077   25.7777  -73.8977 C.2       1 UNK         0.5165 
     66 O         -80.6770   26.3017  -74.3282 O.2       1 UNK        -0.5079 
     67 H67       -81.2360   21.6821  -71.5110 H         1 UNK         0.0900 
     68 H68       -82.2471   21.1082  -72.8385 H         1 UNK         0.0900 
     69 H69       -82.9370   21.3065  -71.2245 H         1 UNK         0.0900 
     70 H70       -80.8433   23.8832  -71.6581 H         1 UNK         0.2959 
     71 H71       -82.9438   25.8112  -72.1744 H         1 UNK         0.1079 
     72 H72       -81.1103   27.4849  -71.8010 H         1 UNK         0.0837 
     73 H73       -81.4642   26.4374  -70.4680 H         1 UNK         0.0837 
     74 H74       -79.4967   27.5572  -69.5035 H         1 UNK         0.0685 
     75 H75       -78.0255   26.6280  -69.3932 H         1 UNK         0.0685 
     76 H76       -79.4470   28.8163  -72.1424 H         1 UNK         0.1434 
     77 H77       -75.9952   31.3351  -72.2580 H         1 UNK         0.1329 
     78 H78       -76.1946   28.1054  -69.4423 H         1 UNK         0.1335 
     79 H79       -74.4210   29.6704  -69.2650 H         1 UNK         0.0680 
     80 H80       -74.5737   31.2311  -70.0224 H         1 UNK         0.0680 
     81 H81       -73.7338   31.6848  -72.6189 H         1 UNK         0.1032 
     82 H82       -72.6338   32.0446  -71.3214 H         1 UNK         0.1032 
     83 H83       -71.5819   32.2657  -73.5453 H         1 UNK         0.0461 
     84 H84       -69.9599   29.1988  -73.2979 H         1 UNK         0.3453 
     85 H85       -68.7202   29.7650  -72.2030 H         1 UNK         0.3453 
     86 H86       -72.6298   29.6263  -74.0351 H         1 UNK         0.2984 
     87 H87       -72.5142   29.5300  -76.9697 H         1 UNK         0.0554 
     88 H88       -70.7890   28.0217  -77.9903 H         1 UNK         0.0847 
     89 H89       -69.6197   28.5393  -76.7764 H         1 UNK         0.0847 
     90 H90       -70.2516   29.6919  -77.9434 H         1 UNK         0.0847 
     91 H91       -73.1175   27.7301  -75.8744 H         1 UNK         0.3141 
     92 H92       -71.4691   25.2873  -73.8869 H         1 UNK         0.0743 
     93 H93       -73.5992   25.4775  -72.6109 H         1 UNK         0.0784 
     94 H94       -72.5314   26.8206  -72.2365 H         1 UNK         0.0784 
     95 H95       -73.9034   27.0655  -73.3106 H         1 UNK         0.0784 
     96 H96       -74.0460   25.3901  -75.1530 H         1 UNK         0.3213 
     97 H97       -72.9686   23.9423  -78.2719 H         1 UNK         0.0855 
     98 H98       -73.4482   22.0683  -76.7390 H         1 UNK         0.0814 
     99 H99       -74.9045   22.4798  -77.6328 H         1 UNK         0.0814 
    100 H100      -74.7244   22.9807  -75.9517 H         1 UNK         0.0814 
    101 H101      -75.5135   24.9229  -77.4466 H         1 UNK         0.3105 
    102 H102      -75.0888   28.2854  -78.5590 H         1 UNK         0.0547 
    103 H103      -75.6366   27.0143  -80.6248 H         1 UNK         0.0837 
    104 H104      -76.7280   25.9718  -79.7272 H         1 UNK         0.0837 
    105 H105      -77.0884   27.6893  -79.9056 H         1 UNK         0.0837 
    106 H106      -77.3005   26.8281  -77.4462 H         1 UNK         0.3020 
    107 H107      -76.6909   27.8094  -74.0459 H         1 UNK         0.1245 
    108 H108      -79.0950   28.4923  -74.4804 H         1 UNK         0.0781 
    109 H109      -78.7767   28.5218  -76.1833 H         1 UNK         0.0781 
    110 H110      -79.4853   30.8157  -73.4836 H         1 UNK         0.0836 
    111 H111      -78.2002   31.9873  -73.3500 H         1 UNK         0.0836 
    112 H112      -78.7208   26.1550  -75.0208 H         1 UNK         0.3022 
    113 H113      -76.9331   23.0438  -75.1818 H         1 UNK         0.0747 
    114 H114      -78.7063   22.2859  -73.6979 H         1 UNK         0.0793 
    115 H115      -77.6839   23.3826  -72.7792 H         1 UNK         0.0793 
    116 H116      -79.2377   23.9355  -73.3940 H         1 UNK         0.0793 
    117 H117      -79.6450   23.5786  -75.7587 H         1 UNK         0.3047 
    118 H118      -79.3307   24.7544  -79.0839 H         1 UNK         0.0822 
    119 H119      -80.2563   22.0155  -78.0699 H         1 UNK         0.0807 
    120 H120      -79.1101   22.3178  -79.3634 H         1 UNK         0.0807 
    121 H121      -80.7895   22.7927  -79.5598 H         1 UNK         0.0807 
    122 H122      -81.0258   25.6880  -78.0610 H         1 UNK         0.2946 
    123 H123      -82.4141   26.3471  -76.4917 H         1 UNK         0.1144 
    124 H124      -84.0623   24.9645  -77.7844 H         1 UNK         0.0793 
    125 H125      -84.3522   23.9633  -76.3678 H         1 UNK         0.0793 
    126 H126      -84.8131   25.6658  -76.3598 H         1 UNK         0.0793 
    127 H127      -83.4429   24.8154  -74.2503 H         1 UNK         0.2896 
@<TRIPOS>BOND
     1    1    2 1    
     2    1   67 1    
     3    1   68 1    
     4    1   69 1    
     5    2    3 2    
     6    2    4 am   BACKBONE|DICT|INTERRES
     7    4    5 1    
     8    4   70 1    
     9    5    6 1    
    10    5   65 1    
    11    5   71 1    
    12    6    7 1    
    13    6   72 1    
    14    6   73 1    
    15    7    8 1    
    16    8    9 1    
    17    8   74 1    
    18    8   75 1    
    19    9   10 ar   
    20    9   14 ar   
    21   10   11 ar   
    22   10   76 1    
    23   11   12 ar   
    24   11   48 1    
    25   12   13 ar   
    26   12   77 1    
    27   13   14 ar   
    28   13   15 1    
    29   14   78 1    
    30   15   16 1    
    31   15   79 1    
    32   15   80 1    
    33   16   17 1    
    34   17   18 1    
    35   17   81 1    
    36   17   82 1    
    37   18   19 1    
    38   18   22 1    
    39   18   83 1    
    40   19   20 am   BACKBONE|DICT|INTERRES
    41   19   21 2    
    42   20   84 1    
    43   20   85 1    
    44   22   23 am   BACKBONE|DICT|INTERRES
    45   22   86 1    
    46   23   24 2    
    47   23   25 1    
    48   25   26 1    
    49   25   27 1    
    50   25   87 1    
    51   26   88 1    
    52   26   89 1    
    53   26   90 1    
    54   27   28 am   BACKBONE|DICT|INTERRES
    55   27   91 1    
    56   28   29 2    
    57   28   30 1    
    58   30   31 1    
    59   30   32 1    
    60   30   92 1    
    61   31   93 1    
    62   31   94 1    
    63   31   95 1    
    64   32   33 am   BACKBONE|DICT|INTERRES
    65   32   96 1    
    66   33   34 2    
    67   33   35 1    
    68   35   36 1    
    69   35   37 1    
    70   35   97 1    
    71   36   98 1    
    72   36   99 1    
    73   36  100 1    
    74   37   38 am   BACKBONE|DICT|INTERRES
    75   37  101 1    
    76   38   39 2    
    77   38   40 1    
    78   40   41 1    
    79   40   42 1    
    80   40  102 1    
    81   41  103 1    
    82   41  104 1    
    83   41  105 1    
    84   42   43 am   BACKBONE|DICT|INTERRES
    85   42  106 1    
    86   43   44 2    
    87   43   45 1    
    88   45   46 1    
    89   45   49 1    
    90   45  107 1    
    91   46   47 1    
    92   46  108 1    
    93   46  109 1    
    94   47   48 1    
    95   48  110 1    
    96   48  111 1    
    97   49   50 am   BACKBONE|DICT|INTERRES
    98   49  112 1    
    99   50   51 2    
   100   50   52 1    
   101   52   53 1    
   102   52   54 1    
   103   52  113 1    
   104   53  114 1    
   105   53  115 1    
   106   53  116 1    
   107   54   55 am   BACKBONE|DICT|INTERRES
   108   54  117 1    
   109   55   56 2    
   110   55   57 1    
   111   57   58 1    
   112   57   59 1    
   113   57  118 1    
   114   58  119 1    
   115   58  120 1    
   116   58  121 1    
   117   59   60 am   BACKBONE|DICT|INTERRES
   118   59  122 1    
   119   60   61 2    
   120   60   62 1    
   121   62   63 1    
   122   62   64 1    
   123   62  123 1    
   124   63  124 1    
   125   63  125 1    
   126   63  126 1    
   127   64   65 am   BACKBONE|DICT|INTERRES
   128   64  127 1    
   129   65   66 2    
@<TRIPOS>SUBSTRUCTURE
     1 UNK         1 GROUP             0       ****    0 ROOT    
