@<TRIPOS>MOLECULE
3R135
127   129    1
SMALL
USER_CHARGES


@<TRIPOS>ATOM
      1 CA        -81.2595   31.2429  -78.3552 C.3       0 UNK        -0.1998 
      2 C         -80.4266   30.0475  -77.9171 C.2       0 UNK         0.4909 
      3 O         -80.3179   29.0713  -78.6602 O.2       0 UNK        -0.5240 
      4 N         -79.8330   30.1197  -76.7195 N.am      1 UNK        -0.4739 
      5 CA        -79.0500   29.0418  -76.1093 C.3       1 UNK         0.0864 
      6 C6        -78.1162   29.5621  -74.9883 C.3       11 UNK        -0.0881 
      7 S7        -78.9256   30.5879  -73.7133 S.3       11 UNK        -0.2682 
      8 C8        -79.1804   29.3807  -72.3762 C.3       11 UNK         0.0289 
      9 C9        -77.9166   29.1153  -71.5690 C.ar      11 UNK        -0.0687 
     10 C10       -77.1789   27.9422  -71.7646 C.ar      11 UNK        -0.0823 
     11 C11       -76.0831   27.6415  -70.9431 C.ar      11 UNK        -0.0830 
     12 C12       -75.7251   28.5453  -69.9381 C.ar      11 UNK        -0.1021 
     13 C13       -76.4321   29.7368  -69.7516 C.ar      11 UNK        -0.0753 
     14 C14       -77.5268   30.0160  -70.5735 C.ar      11 UNK        -0.0933 
     15 C15       -76.0547   30.6930  -68.6261 C.3       11 UNK         0.0166 
     16 S16       -74.8243   31.9369  -69.1389 S.3       11 UNK        -0.2615 
     17 C17       -73.2972   30.9334  -69.2316 C.3       11 UNK        -0.0865 
     18 CA        -72.6960   30.8096  -70.6598 C.3       10 UNK         0.0862 
     19 C         -71.5263   29.7810  -70.6732 C.2       10 UNK         0.5551 
     20 N         -71.6087   28.6894  -71.4239 N.am      10 UNK        -0.7319 
     21 O         -70.5279   29.9802  -69.9857 O.2       10 UNK        -0.5018 
     22 N         -73.7269   30.6103  -71.6939 N.am      10 UNK        -0.4509 
     23 C         -73.5417   30.8195  -73.0008 C.2       10 UNK         0.4899 
     24 O         -72.4597   31.1260  -73.5073 O.2       10 UNK        -0.4839 
     25 CA        -74.7904   30.7369  -73.8845 C.3       9 UNK         0.0222 
     26 CB        -75.3873   32.1421  -74.0741 C.3       9 UNK        -0.1966 
     27 N         -74.4246   30.1833  -75.1885 N.am      9 UNK        -0.4218 
     28 C         -74.5673   28.8967  -75.5216 C.2       9 UNK         0.5020 
     29 O         -75.1069   28.0580  -74.7997 O.2       9 UNK        -0.5274 
     30 CA        -73.9912   28.4642  -76.8761 C.3       8 UNK         0.0270 
     31 CB        -72.5573   27.9373  -76.7060 C.3       8 UNK        -0.1976 
     32 N         -74.8288   27.4106  -77.4506 N.am      8 UNK        -0.4313 
     33 C         -75.9041   27.6431  -78.2160 C.2       8 UNK         0.5041 
     34 O         -76.2298   28.7723  -78.5852 O.2       8 UNK        -0.5577 
     35 CA        -76.8032   26.4517  -78.6107 C.3       7 UNK         0.0284 
     36 CB        -77.2101   26.4938  -80.0986 C.3       7 UNK        -0.1958 
     37 N         -76.2819   25.1331  -78.2337 N.am      7 UNK        -0.4454 
     38 C         -75.2085   24.4949  -78.7239 C.2       7 UNK         0.5089 
     39 O         -74.4995   24.9350  -79.6299 O.2       7 UNK        -0.5125 
     40 CA        -74.8621   23.1452  -78.0601 C.3       6 UNK         0.0408 
     41 CB        -73.4025   22.7127  -78.3120 C.3       6 UNK        -0.1791 
     42 N         -75.1718   23.1105  -76.6239 N.am      6 UNK        -0.4762 
     43 C         -74.6921   23.9280  -75.6691 C.2       6 UNK         0.5007 
     44 O         -73.8806   24.8236  -75.9032 O.2       6 UNK        -0.5032 
     45 CA        -75.2201   23.7475  -74.2272 C.3       5 UNK         0.0783 
     46 C46       -75.6344   25.1063  -73.6070 C.3       11 UNK        -0.0857 
     47 S47       -76.1333   24.9480  -71.8575 S.3       11 UNK        -0.2512 
     48 C48       -75.2626   26.3561  -71.0821 C.3       11 UNK         0.0225 
     49 N         -76.3301   22.7931  -74.1938 N.am      5 UNK        -0.4615 
     50 C         -76.2472   21.5075  -73.8334 C.2       4 UNK         0.5053 
     51 O         -75.2104   20.9686  -73.4465 O.2       4 UNK        -0.5105 
     52 CA        -77.5391   20.6729  -73.9352 C.3       4 UNK         0.0263 
     53 CB        -78.1843   20.5197  -72.5483 C.3       4 UNK        -0.1981 
     54 N         -78.5279   21.2331  -74.8637 N.am      4 UNK        -0.4224 
     55 C         -78.3682   21.3246  -76.1921 C.2       3 UNK         0.4895 
     56 O         -77.3817   20.9018  -76.7947 O.2       3 UNK        -0.5091 
     57 CA        -79.4608   22.0810  -76.9665 C.3       3 UNK         0.0250 
     58 CB        -80.6132   21.1354  -77.3406 C.3       3 UNK        -0.1996 
     59 N         -79.9899   23.2443  -76.2420 N.am      3 UNK        -0.4254 
     60 C         -79.2625   24.3150  -75.8963 C.2       2 UNK         0.5004 
     61 O         -78.0528   24.4237  -76.1174 O.2       2 UNK        -0.5226 
     62 CA        -79.9847   25.4370  -75.1476 C.3       2 UNK         0.0269 
     63 CB        -79.9182   25.2098  -73.6276 C.3       2 UNK        -0.1926 
     64 N         -79.3251   26.6945  -75.4843 N.am      2 UNK        -0.4687 
     65 C         -79.9389   27.8725  -75.6344 C.2       1 UNK         0.5165 
     66 O         -81.1376   28.0510  -75.4007 O.2       1 UNK        -0.5079 
     67 H67       -81.2582   32.0364  -77.6080 H         1 UNK         0.0900 
     68 H68       -82.2919   30.9384  -78.5247 H         1 UNK         0.0900 
     69 H69       -80.8673   31.6528  -79.2856 H         1 UNK         0.0900 
     70 H70       -79.9815   30.9265  -76.1296 H         1 UNK         0.2959 
     71 H71       -78.4099   28.6404  -76.8962 H         1 UNK         0.1079 
     72 H72       -77.5822   28.7403  -74.5117 H         1 UNK         0.0837 
     73 H73       -77.3424   30.1754  -75.4489 H         1 UNK         0.0837 
     74 H74       -79.9534   29.7657  -71.7095 H         1 UNK         0.0685 
     75 H75       -79.5788   28.4515  -72.7848 H         1 UNK         0.0685 
     76 H76       -77.4803   27.2542  -72.5410 H         1 UNK         0.1434 
     77 H77       -74.8968   28.3064  -69.2863 H         1 UNK         0.1329 
     78 H78       -78.0966   30.9225  -70.4201 H         1 UNK         0.1335 
     79 H79       -75.6792   30.1374  -67.7653 H         1 UNK         0.0680 
     80 H80       -76.9463   31.2153  -68.2759 H         1 UNK         0.0680 
     81 H81       -73.4802   29.9495  -68.8010 H         1 UNK         0.1032 
     82 H82       -72.5626   31.3954  -68.5692 H         1 UNK         0.1032 
     83 H83       -72.2348   31.7736  -70.8838 H         1 UNK         0.0461 
     84 H84       -72.4159   28.5353  -72.0055 H         1 UNK         0.3453 
     85 H85       -70.8454   28.0318  -71.4274 H         1 UNK         0.3453 
     86 H86       -74.6490   30.3731  -71.3531 H         1 UNK         0.2984 
     87 H87       -75.5379   30.1078  -73.3955 H         1 UNK         0.0554 
     88 H88       -76.2606   32.1257  -74.7248 H         1 UNK         0.0847 
     89 H89       -74.6646   32.8364  -74.5049 H         1 UNK         0.0847 
     90 H90       -75.7086   32.5577  -73.1179 H         1 UNK         0.0847 
     91 H91       -73.9050   30.7950  -75.8021 H         1 UNK         0.3141 
     92 H92       -73.9654   29.3237  -77.5496 H         1 UNK         0.0743 
     93 H93       -72.5114   27.1110  -75.9956 H         1 UNK         0.0784 
     94 H94       -72.1475   27.5874  -77.6537 H         1 UNK         0.0784 
     95 H95       -71.8956   28.7208  -76.3341 H         1 UNK         0.0784 
     96 H96       -74.6493   26.4701  -77.1170 H         1 UNK         0.3213 
     97 H97       -77.7188   26.5707  -78.0313 H         1 UNK         0.0855 
     98 H98       -77.7605   27.4080  -80.3254 H         1 UNK         0.0814 
     99 H99       -77.8577   25.6564  -80.3577 H         1 UNK         0.0814 
    100 H100      -76.3432   26.4678  -80.7591 H         1 UNK         0.0814 
    101 H101      -76.7833   24.6867  -77.4669 H         1 UNK         0.3105 
    102 H102      -75.5117   22.4038  -78.5273 H         1 UNK         0.0547 
    103 H103      -73.2048   22.6046  -79.3791 H         1 UNK         0.0837 
    104 H104      -72.6909   23.4416  -77.9229 H         1 UNK         0.0837 
    105 H105      -73.1874   21.7513  -77.8459 H         1 UNK         0.0837 
    106 H106      -75.8548   22.4131  -76.3513 H         1 UNK         0.3020 
    107 H107      -74.3812   23.3571  -73.6468 H         1 UNK         0.1245 
    108 H108      -76.4531   25.5610  -74.1671 H         1 UNK         0.0781 
    109 H109      -74.8004   25.8052  -73.6679 H         1 UNK         0.0781 
    110 H110      -74.3381   26.5773  -71.6160 H         1 UNK         0.0836 
    111 H111      -74.9580   26.0255  -70.0878 H         1 UNK         0.0836 
    112 H112      -77.2110   23.1504  -74.5384 H         1 UNK         0.3022 
    113 H113      -77.2600   19.6813  -74.2979 H         1 UNK         0.0747 
    114 H114      -79.0604   19.8719  -72.5861 H         1 UNK         0.0793 
    115 H115      -77.4847   20.0737  -71.8398 H         1 UNK         0.0793 
    116 H116      -78.4929   21.4823  -72.1380 H         1 UNK         0.0793 
    117 H117      -79.3718   21.6095  -74.4567 H         1 UNK         0.3047 
    118 H118      -79.0080   22.4475  -77.8907 H         1 UNK         0.0822 
    119 H119      -81.3469   21.6350  -77.9737 H         1 UNK         0.0807 
    120 H120      -81.1319   20.7574  -76.4586 H         1 UNK         0.0807 
    121 H121      -80.2443   20.2721  -77.8966 H         1 UNK         0.0807 
    122 H122      -80.9749   23.2267  -76.0174 H         1 UNK         0.2946 
    123 H123      -81.0274   25.4623  -75.4737 H         1 UNK         0.1144 
    124 H124      -80.4033   24.2739  -73.3477 H         1 UNK         0.0793 
    125 H125      -80.4240   26.0092  -73.0859 H         1 UNK         0.0793 
    126 H126      -78.8892   25.1645  -73.2697 H         1 UNK         0.0793 
    127 H127      -78.3442   26.5945  -75.7107 H         1 UNK         0.2896 
@<TRIPOS>BOND
     1    1    2 1    
     2    1   67 1    
     3    1   68 1    
     4    1   69 1    
     5    2    3 2    
     6    2    4 am   BACKBONE|DICT|INTERRES
     7    4    5 1    
     8    4   70 1    
     9    5    6 1    
    10    5   65 1    
    11    5   71 1    
    12    6    7 1    
    13    6   72 1    
    14    6   73 1    
    15    7    8 1    
    16    8    9 1    
    17    8   74 1    
    18    8   75 1    
    19    9   10 ar   
    20    9   14 ar   
    21   10   11 ar   
    22   10   76 1    
    23   11   12 ar   
    24   11   48 1    
    25   12   13 ar   
    26   12   77 1    
    27   13   14 ar   
    28   13   15 1    
    29   14   78 1    
    30   15   16 1    
    31   15   79 1    
    32   15   80 1    
    33   16   17 1    
    34   17   18 1    
    35   17   81 1    
    36   17   82 1    
    37   18   19 1    
    38   18   22 1    
    39   18   83 1    
    40   19   20 am   BACKBONE|DICT|INTERRES
    41   19   21 2    
    42   20   84 1    
    43   20   85 1    
    44   22   23 am   BACKBONE|DICT|INTERRES
    45   22   86 1    
    46   23   24 2    
    47   23   25 1    
    48   25   26 1    
    49   25   27 1    
    50   25   87 1    
    51   26   88 1    
    52   26   89 1    
    53   26   90 1    
    54   27   28 am   BACKBONE|DICT|INTERRES
    55   27   91 1    
    56   28   29 2    
    57   28   30 1    
    58   30   31 1    
    59   30   32 1    
    60   30   92 1    
    61   31   93 1    
    62   31   94 1    
    63   31   95 1    
    64   32   33 am   BACKBONE|DICT|INTERRES
    65   32   96 1    
    66   33   34 2    
    67   33   35 1    
    68   35   36 1    
    69   35   37 1    
    70   35   97 1    
    71   36   98 1    
    72   36   99 1    
    73   36  100 1    
    74   37   38 am   BACKBONE|DICT|INTERRES
    75   37  101 1    
    76   38   39 2    
    77   38   40 1    
    78   40   41 1    
    79   40   42 1    
    80   40  102 1    
    81   41  103 1    
    82   41  104 1    
    83   41  105 1    
    84   42   43 am   BACKBONE|DICT|INTERRES
    85   42  106 1    
    86   43   44 2    
    87   43   45 1    
    88   45   46 1    
    89   45   49 1    
    90   45  107 1    
    91   46   47 1    
    92   46  108 1    
    93   46  109 1    
    94   47   48 1    
    95   48  110 1    
    96   48  111 1    
    97   49   50 am   BACKBONE|DICT|INTERRES
    98   49  112 1    
    99   50   51 2    
   100   50   52 1    
   101   52   53 1    
   102   52   54 1    
   103   52  113 1    
   104   53  114 1    
   105   53  115 1    
   106   53  116 1    
   107   54   55 am   BACKBONE|DICT|INTERRES
   108   54  117 1    
   109   55   56 2    
   110   55   57 1    
   111   57   58 1    
   112   57   59 1    
   113   57  118 1    
   114   58  119 1    
   115   58  120 1    
   116   58  121 1    
   117   59   60 am   BACKBONE|DICT|INTERRES
   118   59  122 1    
   119   60   61 2    
   120   60   62 1    
   121   62   63 1    
   122   62   64 1    
   123   62  123 1    
   124   63  124 1    
   125   63  125 1    
   126   63  126 1    
   127   64   65 am   BACKBONE|DICT|INTERRES
   128   64  127 1    
   129   65   66 2    
@<TRIPOS>SUBSTRUCTURE
     1 UNK         1 GROUP             0       ****    0 ROOT    
