@<TRIPOS>MOLECULE
3R135
127   129    1
SMALL
USER_CHARGES


@<TRIPOS>ATOM
      1 CA        -80.3285   31.4690  -76.4552 C.3       0 UNK        -0.1998 
      2 C         -80.7558   30.2840  -75.6018 C.2       0 UNK         0.4909 
      3 O         -81.9287   29.9103  -75.6316 O.2       0 UNK        -0.5240 
      4 N         -79.8157   29.7011  -74.8435 N.am      1 UNK        -0.4739 
      5 CA        -79.9872   28.5293  -73.9753 C.3       1 UNK         0.0864 
      6 C6        -80.8994   28.8498  -72.7574 C.3       11 UNK        -0.0881 
      7 S7        -80.8088   27.6021  -71.4293 S.3       11 UNK        -0.2682 
      8 C8        -79.9891   28.5185  -70.0799 C.3       11 UNK         0.0289 
      9 C9        -78.4735   28.5862  -70.2333 C.ar      11 UNK        -0.0687 
     10 C10       -77.7322   27.4099  -70.3789 C.ar      11 UNK        -0.0823 
     11 C11       -76.3378   27.4494  -70.4757 C.ar      11 UNK        -0.0830 
     12 C12       -75.6834   28.6792  -70.3770 C.ar      11 UNK        -0.1021 
     13 C13       -76.4055   29.8673  -70.2240 C.ar      11 UNK        -0.0753 
     14 C14       -77.8035   29.8133  -70.1641 C.ar      11 UNK        -0.0933 
     15 C15       -75.6804   31.2020  -70.0627 C.3       11 UNK         0.0166 
     16 S16       -74.3251   31.4590  -71.2607 S.3       11 UNK        -0.2615 
     17 C17       -75.2519   31.6214  -72.8217 C.3       11 UNK        -0.0865 
     18 CA        -75.2164   30.3363  -73.6967 C.3       10 UNK         0.0862 
     19 C         -76.2315   30.4183  -74.8723 C.2       10 UNK         0.5551 
     20 N         -75.9505   29.8499  -76.0355 N.am      10 UNK        -0.7319 
     21 O         -77.3041   30.9975  -74.7315 O.2       10 UNK        -0.5018 
     22 N         -73.8526   30.0189  -74.1590 N.am      10 UNK        -0.4509 
     23 C         -73.1037   28.9873  -73.7514 C.2       10 UNK         0.4899 
     24 O         -73.4408   28.1999  -72.8679 O.2       10 UNK        -0.4839 
     25 CA        -71.7314   28.8475  -74.4416 C.3       9 UNK         0.0222 
     26 CB        -70.5837   29.1768  -73.4663 C.3       9 UNK        -0.1966 
     27 N         -71.5247   27.5505  -75.1060 N.am      9 UNK        -0.4218 
     28 C         -71.4076   26.3277  -74.5674 C.2       9 UNK         0.5020 
     29 O         -71.4278   26.0963  -73.3577 O.2       9 UNK        -0.5274 
     30 CA        -71.1886   25.1533  -75.5479 C.3       8 UNK         0.0270 
     31 CB        -71.3397   23.7801  -74.8635 C.3       8 UNK        -0.1976 
     32 N         -72.0593   25.1759  -76.7282 N.am      8 UNK        -0.4313 
     33 C         -71.8698   25.9112  -77.8321 C.2       8 UNK         0.5041 
     34 O         -71.0048   26.7829  -77.9225 O.2       8 UNK        -0.5577 
     35 CA        -72.8005   25.6366  -79.0244 C.3       7 UNK         0.0284 
     36 CB        -72.4940   24.2671  -79.6542 C.3       7 UNK        -0.1958 
     37 N         -74.1959   25.6750  -78.5944 N.am      7 UNK        -0.4454 
     38 C         -75.0494   26.6762  -78.8490 C.2       7 UNK         0.5089 
     39 O         -74.8227   27.5910  -79.6417 O.2       7 UNK        -0.5125 
     40 CA        -76.3709   26.6860  -78.0515 C.3       6 UNK         0.0408 
     41 CB        -77.4984   26.0332  -78.8646 C.3       6 UNK        -0.1791 
     42 N         -76.2794   26.0330  -76.7400 N.am      6 UNK        -0.4762 
     43 C         -75.4052   26.3633  -75.7740 C.2       6 UNK         0.5007 
     44 O         -74.6330   27.3141  -75.8696 O.2       6 UNK        -0.5032 
     45 CA        -75.3304   25.4595  -74.5248 C.3       5 UNK         0.0783 
     46 C46       -76.2287   26.0496  -73.4118 C.3       11 UNK        -0.0857 
     47 S47       -76.2375   25.0322  -71.8948 S.3       11 UNK        -0.2512 
     48 C48       -75.5208   26.1747  -70.6672 C.3       11 UNK         0.0225 
     49 N         -75.6835   24.0621  -74.7941 N.am      5 UNK        -0.4615 
     50 C         -75.2467   23.2574  -75.7718 C.2       4 UNK         0.5053 
     51 O         -74.3319   23.5454  -76.5446 O.2       4 UNK        -0.5105 
     52 CA        -76.0260   21.9402  -75.9663 C.3       4 UNK         0.0263 
     53 CB        -75.2457   20.7666  -75.3547 C.3       4 UNK        -0.1981 
     54 N         -77.3902   21.9654  -75.4086 N.am      4 UNK        -0.4224 
     55 C         -78.3438   22.8536  -75.7343 C.2       3 UNK         0.4895 
     56 O         -78.2025   23.7045  -76.6174 O.2       3 UNK        -0.5091 
     57 CA        -79.6265   22.8437  -74.8876 C.3       3 UNK         0.0250 
     58 CB        -79.3293   22.7746  -73.3727 C.3       3 UNK        -0.1996 
     59 N         -80.3781   24.0595  -75.1887 N.am      3 UNK        -0.4254 
     60 C         -81.6676   24.2884  -74.9315 C.2       2 UNK         0.5004 
     61 O         -82.4080   23.4781  -74.3701 O.2       2 UNK        -0.5226 
     62 CA        -82.2079   25.6635  -75.3663 C.3       2 UNK         0.0269 
     63 CB        -83.7399   25.7634  -75.2404 C.3       2 UNK        -0.1926 
     64 N         -81.6047   26.7567  -74.5996 N.am      2 UNK        -0.4687 
     65 C         -80.3982   27.2973  -74.8205 C.2       1 UNK         0.5165 
     66 O         -79.6177   26.8731  -75.6756 O.2       1 UNK        -0.5079 
     67 H67       -80.8426   32.3718  -76.1269 H         1 UNK         0.0900 
     68 H68       -80.5849   31.2908  -77.4991 H         1 UNK         0.0900 
     69 H69       -79.2558   31.6501  -76.3988 H         1 UNK         0.0900 
     70 H70       -78.8750   30.0916  -74.8598 H         1 UNK         0.2959 
     71 H71       -78.9919   28.3041  -73.5875 H         1 UNK         0.1079 
     72 H72       -81.9408   28.9733  -73.0591 H         1 UNK         0.0837 
     73 H73       -80.6091   29.8153  -72.3403 H         1 UNK         0.0837 
     74 H74       -80.2123   28.0129  -69.1395 H         1 UNK         0.0685 
     75 H75       -80.4247   29.5154  -69.9966 H         1 UNK         0.0685 
     76 H76       -78.2465   26.4596  -70.4218 H         1 UNK         0.1434 
     77 H77       -74.6034   28.7143  -70.4268 H         1 UNK         0.1329 
     78 H78       -78.3694   30.7250  -70.0299 H         1 UNK         0.1335 
     79 H79       -76.3798   32.0363  -70.1366 H         1 UNK         0.0680 
     80 H80       -75.2617   31.2432  -69.0565 H         1 UNK         0.0680 
     81 H81       -76.2791   31.8980  -72.5767 H         1 UNK         0.1032 
     82 H82       -74.8438   32.4668  -73.3780 H         1 UNK         0.1032 
     83 H83       -75.5897   29.5129  -73.0876 H         1 UNK         0.0461 
     84 H84       -75.1649   29.2128  -76.1066 H         1 UNK         0.3453 
     85 H85       -76.6088   29.9249  -76.7927 H         1 UNK         0.3453 
     86 H86       -73.5058   30.6087  -74.9017 H         1 UNK         0.2984 
     87 H87       -71.6862   29.5832  -75.2461 H         1 UNK         0.0554 
     88 H88       -69.6133   29.1242  -73.9596 H         1 UNK         0.0847 
     89 H89       -70.5661   28.4965  -72.6143 H         1 UNK         0.0847 
     90 H90       -70.6926   30.1861  -73.0675 H         1 UNK         0.0847 
     91 H91       -71.4844   27.5842  -76.1204 H         1 UNK         0.3141 
     92 H92       -70.1548   25.2310  -75.8913 H         1 UNK         0.0743 
     93 H93       -70.6293   23.6682  -74.0433 H         1 UNK         0.0784 
     94 H94       -72.3399   23.6445  -74.4504 H         1 UNK         0.0784 
     95 H95       -71.1526   22.9641  -75.5619 H         1 UNK         0.0784 
     96 H96       -72.8336   24.5138  -76.7143 H         1 UNK         0.3213 
     97 H97       -72.6099   26.4042  -79.7778 H         1 UNK         0.0855 
     98 H98       -72.6815   23.4459  -78.9611 H         1 UNK         0.0814 
     99 H99       -71.4493   24.2042  -79.9619 H         1 UNK         0.0814 
    100 H100      -73.1035   24.0980  -80.5420 H         1 UNK         0.0814 
    101 H101      -74.4754   24.9766  -77.9131 H         1 UNK         0.3105 
    102 H102      -76.6402   27.7287  -77.8766 H         1 UNK         0.0547 
    103 H103      -78.4548   26.1117  -78.3465 H         1 UNK         0.0837 
    104 H104      -77.6138   26.5180  -79.8348 H         1 UNK         0.0837 
    105 H105      -77.3031   24.9756  -79.0468 H         1 UNK         0.0837 
    106 H106      -76.8970   25.2396  -76.5927 H         1 UNK         0.3020 
    107 H107      -74.2952   25.4740  -74.1780 H         1 UNK         0.1245 
    108 H108      -77.2619   26.1361  -73.7552 H         1 UNK         0.0781 
    109 H109      -75.9071   27.0638  -73.1695 H         1 UNK         0.0781 
    110 H110      -74.5012   26.4130  -70.9755 H         1 UNK         0.0836 
    111 H111      -75.4433   25.6601  -69.7089 H         1 UNK         0.0836 
    112 H112      -76.4115   23.6991  -74.1976 H         1 UNK         0.3022 
    113 H113      -76.1133   21.7752  -77.0421 H         1 UNK         0.0747 
    114 H114      -75.7319   19.8135  -75.5637 H         1 UNK         0.0793 
    115 H115      -74.2375   20.7107  -75.7685 H         1 UNK         0.0793 
    116 H116      -75.1481   20.8658  -74.2727 H         1 UNK         0.0793 
    117 H117      -77.5875   21.2935  -74.6807 H         1 UNK         0.3047 
    118 H118      -80.2181   21.9766  -75.1878 H         1 UNK         0.0822 
    119 H119      -78.8097   21.8558  -73.1003 H         1 UNK         0.0807 
    120 H120      -80.2473   22.7955  -72.7854 H         1 UNK         0.0807 
    121 H121      -78.7144   23.6139  -73.0463 H         1 UNK         0.0807 
    122 H122      -79.8426   24.7777  -75.6702 H         1 UNK         0.2946 
    123 H123      -81.9537   25.7917  -76.4213 H         1 UNK         0.1144 
    124 H124      -84.2315   24.9788  -75.8174 H         1 UNK         0.0793 
    125 H125      -84.1064   26.7184  -75.6178 H         1 UNK         0.0793 
    126 H126      -84.0690   25.6630  -74.2053 H         1 UNK         0.0793 
    127 H127      -82.1616   27.1367  -73.8477 H         1 UNK         0.2896 
@<TRIPOS>BOND
     1    1    2 1    
     2    1   67 1    
     3    1   68 1    
     4    1   69 1    
     5    2    3 2    
     6    2    4 am   BACKBONE|DICT|INTERRES
     7    4    5 1    
     8    4   70 1    
     9    5    6 1    
    10    5   65 1    
    11    5   71 1    
    12    6    7 1    
    13    6   72 1    
    14    6   73 1    
    15    7    8 1    
    16    8    9 1    
    17    8   74 1    
    18    8   75 1    
    19    9   10 ar   
    20    9   14 ar   
    21   10   11 ar   
    22   10   76 1    
    23   11   12 ar   
    24   11   48 1    
    25   12   13 ar   
    26   12   77 1    
    27   13   14 ar   
    28   13   15 1    
    29   14   78 1    
    30   15   16 1    
    31   15   79 1    
    32   15   80 1    
    33   16   17 1    
    34   17   18 1    
    35   17   81 1    
    36   17   82 1    
    37   18   19 1    
    38   18   22 1    
    39   18   83 1    
    40   19   20 am   BACKBONE|DICT|INTERRES
    41   19   21 2    
    42   20   84 1    
    43   20   85 1    
    44   22   23 am   BACKBONE|DICT|INTERRES
    45   22   86 1    
    46   23   24 2    
    47   23   25 1    
    48   25   26 1    
    49   25   27 1    
    50   25   87 1    
    51   26   88 1    
    52   26   89 1    
    53   26   90 1    
    54   27   28 am   BACKBONE|DICT|INTERRES
    55   27   91 1    
    56   28   29 2    
    57   28   30 1    
    58   30   31 1    
    59   30   32 1    
    60   30   92 1    
    61   31   93 1    
    62   31   94 1    
    63   31   95 1    
    64   32   33 am   BACKBONE|DICT|INTERRES
    65   32   96 1    
    66   33   34 2    
    67   33   35 1    
    68   35   36 1    
    69   35   37 1    
    70   35   97 1    
    71   36   98 1    
    72   36   99 1    
    73   36  100 1    
    74   37   38 am   BACKBONE|DICT|INTERRES
    75   37  101 1    
    76   38   39 2    
    77   38   40 1    
    78   40   41 1    
    79   40   42 1    
    80   40  102 1    
    81   41  103 1    
    82   41  104 1    
    83   41  105 1    
    84   42   43 am   BACKBONE|DICT|INTERRES
    85   42  106 1    
    86   43   44 2    
    87   43   45 1    
    88   45   46 1    
    89   45   49 1    
    90   45  107 1    
    91   46   47 1    
    92   46  108 1    
    93   46  109 1    
    94   47   48 1    
    95   48  110 1    
    96   48  111 1    
    97   49   50 am   BACKBONE|DICT|INTERRES
    98   49  112 1    
    99   50   51 2    
   100   50   52 1    
   101   52   53 1    
   102   52   54 1    
   103   52  113 1    
   104   53  114 1    
   105   53  115 1    
   106   53  116 1    
   107   54   55 am   BACKBONE|DICT|INTERRES
   108   54  117 1    
   109   55   56 2    
   110   55   57 1    
   111   57   58 1    
   112   57   59 1    
   113   57  118 1    
   114   58  119 1    
   115   58  120 1    
   116   58  121 1    
   117   59   60 am   BACKBONE|DICT|INTERRES
   118   59  122 1    
   119   60   61 2    
   120   60   62 1    
   121   62   63 1    
   122   62   64 1    
   123   62  123 1    
   124   63  124 1    
   125   63  125 1    
   126   63  126 1    
   127   64   65 am   BACKBONE|DICT|INTERRES
   128   64  127 1    
   129   65   66 2    
@<TRIPOS>SUBSTRUCTURE
     1 UNK         1 GROUP             0       ****    0 ROOT    
