@<TRIPOS>MOLECULE
3R135
127   129    1
SMALL
USER_CHARGES


@<TRIPOS>ATOM
      1 CA        -84.7340   29.1706  -72.7642 C.3       0 UNK        -0.1998 
      2 C         -83.4597   28.5752  -73.3439 C.2       0 UNK         0.4909 
      3 O         -82.9342   27.6093  -72.7900 O.2       0 UNK        -0.5240 
      4 N         -82.9613   29.1548  -74.4454 N.am      1 UNK        -0.4739 
      5 CA        -81.7673   28.7352  -75.1937 C.3       1 UNK         0.0864 
      6 C6        -80.4396   28.8877  -74.3937 C.3       11 UNK        -0.0881 
      7 S7        -80.1523   30.6074  -73.8517 S.3       11 UNK        -0.2682 
      8 C8        -80.3805   30.4823  -72.0483 C.3       11 UNK         0.0289 
      9 C9        -79.1601   29.8817  -71.3666 C.ar      11 UNK        -0.0687 
     10 C10       -79.1282   28.5248  -71.0300 C.ar      11 UNK        -0.0823 
     11 C11       -77.9965   27.9712  -70.4224 C.ar      11 UNK        -0.0830 
     12 C12       -76.9085   28.7940  -70.1156 C.ar      11 UNK        -0.1021 
     13 C13       -76.9210   30.1464  -70.4679 C.ar      11 UNK        -0.0753 
     14 C14       -78.0528   30.6866  -71.0844 C.ar      11 UNK        -0.0933 
     15 C15       -75.6991   31.0172  -70.2203 C.3       11 UNK         0.0166 
     16 S16       -74.5877   31.0177  -71.6646 S.3       11 UNK        -0.2615 
     17 C17       -73.8797   29.3392  -71.5652 C.3       11 UNK        -0.0865 
     18 CA        -72.5541   29.2111  -72.3557 C.3       10 UNK         0.0862 
     19 C         -71.8405   27.8799  -72.0178 C.2       10 UNK         0.5551 
     20 N         -70.6525   27.9360  -71.4328 N.am      10 UNK        -0.7319 
     21 O         -72.3761   26.7989  -72.2501 O.2       10 UNK        -0.5018 
     22 N         -72.7815   29.2686  -73.8030 N.am      10 UNK        -0.4509 
     23 C         -72.0124   29.9230  -74.6785 C.2       10 UNK         0.4899 
     24 O         -71.0942   30.6833  -74.3656 O.2       10 UNK        -0.4839 
     25 CA        -72.3149   29.6289  -76.1586 C.3       9 UNK         0.0222 
     26 CB        -71.4788   30.4760  -77.1418 C.3       9 UNK        -0.1966 
     27 N         -72.1886   28.1933  -76.4378 N.am      9 UNK        -0.4218 
     28 C         -71.0845   27.4336  -76.3524 C.2       9 UNK         0.5020 
     29 O         -69.9571   27.8725  -76.1213 O.2       9 UNK        -0.5274 
     30 CA        -71.2570   25.9148  -76.5372 C.3       8 UNK         0.0270 
     31 CB        -71.2069   25.2003  -75.1771 C.3       8 UNK        -0.1976 
     32 N         -72.4988   25.5413  -77.2158 N.am      8 UNK        -0.4313 
     33 C         -72.7248   25.6651  -78.5298 C.2       8 UNK         0.5041 
     34 O         -71.8980   26.0987  -79.3329 O.2       8 UNK        -0.5577 
     35 CA        -74.1173   25.2463  -79.0245 C.3       7 UNK         0.0284 
     36 CB        -74.2267   23.7159  -79.1369 C.3       7 UNK        -0.1958 
     37 N         -75.1736   25.7534  -78.1469 N.am      7 UNK        -0.4454 
     38 C         -75.6430   27.0079  -78.1753 C.2       7 UNK         0.5089 
     39 O         -75.2557   27.8672  -78.9668 O.2       7 UNK        -0.5125 
     40 CA        -76.7336   27.3687  -77.1513 C.3       6 UNK         0.0408 
     41 CB        -78.1259   27.1703  -77.7707 C.3       6 UNK        -0.1791 
     42 N         -76.6392   26.6060  -75.9029 N.am      6 UNK        -0.4762 
     43 C         -75.6642   26.7576  -74.9966 C.2       6 UNK         0.5007 
     44 O         -74.7359   27.5574  -75.1174 O.2       6 UNK        -0.5032 
     45 CA        -75.7170   25.8457  -73.7560 C.3       5 UNK         0.0783 
     46 C46       -76.7565   26.3899  -72.7499 C.3       11 UNK        -0.0857 
     47 S47       -76.5669   25.6640  -71.0872 S.3       11 UNK        -0.2512 
     48 C48       -77.9229   26.4712  -70.1622 C.3       11 UNK         0.0225 
     49 N         -75.9429   24.4277  -74.0706 N.am      5 UNK        -0.4615 
     50 C         -75.2285   23.6876  -74.9300 C.2       4 UNK         0.5053 
     51 O         -74.3361   24.1421  -75.6432 O.2       4 UNK        -0.5105 
     52 CA        -75.5523   22.1873  -75.0385 C.3       4 UNK         0.0263 
     53 CB        -74.4282   21.3656  -74.3876 C.3       4 UNK        -0.1981 
     54 N         -76.8296   21.8082  -74.4250 N.am      4 UNK        -0.4224 
     55 C         -78.0604   21.9309  -74.9437 C.2       3 UNK         0.4895 
     56 O         -79.0544   21.5617  -74.3175 O.2       3 UNK        -0.5091 
     57 CA        -78.2502   22.5016  -76.3687 C.3       3 UNK         0.0250 
     58 CB        -78.2479   21.3697  -77.4095 C.3       3 UNK        -0.1996 
     59 N         -79.5070   23.2456  -76.4773 N.am      3 UNK        -0.4254 
     60 C         -79.7323   24.4148  -75.8676 C.2       2 UNK         0.5004 
     61 O         -78.8687   25.0323  -75.2368 O.2       2 UNK        -0.5226 
     62 CA        -81.1474   24.9924  -75.9800 C.3       2 UNK         0.0269 
     63 CB        -82.1513   24.1723  -75.1472 C.3       2 UNK        -0.1926 
     64 N         -81.1163   26.3699  -75.4985 N.am      2 UNK        -0.4687 
     65 C         -81.9899   27.3332  -75.8072 C.2       1 UNK         0.5165 
     66 O         -82.9529   27.1561  -76.5570 O.2       1 UNK        -0.5079 
     67 H67       -85.0857   30.0251  -73.3420 H         1 UNK         0.0900 
     68 H68       -85.5252   28.4215  -72.7505 H         1 UNK         0.0900 
     69 H69       -84.5604   29.5021  -71.7408 H         1 UNK         0.0900 
     70 H70       -83.4608   29.9330  -74.8526 H         1 UNK         0.2959 
     71 H71       -81.7016   29.4081  -76.0506 H         1 UNK         0.1079 
     72 H72       -79.5845   28.6070  -75.0109 H         1 UNK         0.0837 
     73 H73       -80.4250   28.2193  -73.5334 H         1 UNK         0.0837 
     74 H74       -80.5631   31.4811  -71.6493 H         1 UNK         0.0685 
     75 H75       -81.2748   29.8998  -71.8244 H         1 UNK         0.0685 
     76 H76       -79.9762   27.8953  -71.2634 H         1 UNK         0.1434 
     77 H77       -76.0300   28.3656  -69.6530 H         1 UNK         0.1329 
     78 H78       -78.0645   31.7310  -71.3651 H         1 UNK         0.1335 
     79 H79       -75.1596   30.6819  -69.3332 H         1 UNK         0.0680 
     80 H80       -76.0114   32.0426  -70.0165 H         1 UNK         0.0680 
     81 H81       -74.6153   28.6181  -71.9253 H         1 UNK         0.1032 
     82 H82       -73.7115   29.1052  -70.5122 H         1 UNK         0.1032 
     83 H83       -71.9063   30.0357  -72.0502 H         1 UNK         0.0461 
     84 H84       -70.1838   27.0763  -71.1942 H         1 UNK         0.3453 
     85 H85       -70.2092   28.8201  -71.2367 H         1 UNK         0.3453 
     86 H86       -73.4855   28.6323  -74.1681 H         1 UNK         0.2984 
     87 H87       -73.3643   29.8810  -76.3202 H         1 UNK         0.0554 
     88 H88       -71.6643   31.5398  -76.9895 H         1 UNK         0.0847 
     89 H89       -71.7328   30.2466  -78.1766 H         1 UNK         0.0847 
     90 H90       -70.4079   30.3151  -77.0159 H         1 UNK         0.0847 
     91 H91       -73.0688   27.7061  -76.5516 H         1 UNK         0.3141 
     92 H92       -70.4166   25.5625  -77.1390 H         1 UNK         0.0743 
     93 H93       -70.2991   25.4558  -74.6288 H         1 UNK         0.0784 
     94 H94       -72.0558   25.4758  -74.5505 H         1 UNK         0.0784 
     95 H95       -71.2210   24.1169  -75.2975 H         1 UNK         0.0784 
     96 H96       -73.2224   25.1178  -76.6341 H         1 UNK         0.3213 
     97 H97       -74.2585   25.6670  -80.0228 H         1 UNK         0.0855 
     98 H98       -74.0880   23.2220  -78.1748 H         1 UNK         0.0814 
     99 H99       -73.4681   23.3226  -79.8149 H         1 UNK         0.0814 
    100 H100      -75.1981   23.4159  -79.5305 H         1 UNK         0.0814 
    101 H101      -75.5029   25.1368  -77.4179 H         1 UNK         0.3105 
    102 H102      -76.6192   28.4271  -76.9071 H         1 UNK         0.0547 
    103 H103      -78.2333   27.7563  -78.6845 H         1 UNK         0.0837 
    104 H104      -78.9136   27.4900  -77.0904 H         1 UNK         0.0837 
    105 H105      -78.3074   26.1269  -78.0306 H         1 UNK         0.0837 
    106 H106      -77.3925   25.9500  -75.6959 H         1 UNK         0.3020 
    107 H107      -74.7291   25.9079  -73.2939 H         1 UNK         0.1245 
    108 H108      -77.7744   26.2130  -73.1013 H         1 UNK         0.0781 
    109 H109      -76.6512   27.4723  -72.6566 H         1 UNK         0.0781 
    110 H110      -77.7808   26.2963  -69.0950 H         1 UNK         0.0836 
    111 H111      -78.8627   25.9860  -70.4306 H         1 UNK         0.0836 
    112 H112      -76.6771   23.9775  -73.5444 H         1 UNK         0.3022 
    113 H113      -75.5687   21.9301  -76.0987 H         1 UNK         0.0747 
    114 H114      -73.4625   21.5949  -74.8411 H         1 UNK         0.0793 
    115 H115      -74.3422   21.5707  -73.3196 H         1 UNK         0.0793 
    116 H116      -74.5948   20.2954  -74.5124 H         1 UNK         0.0793 
    117 H117      -76.7583   21.4128  -73.4985 H         1 UNK         0.3047 
    118 H118      -77.4481   23.1982  -76.6113 H         1 UNK         0.0822 
    119 H119      -78.3532   21.7607  -78.4218 H         1 UNK         0.0807 
    120 H120      -79.0595   20.6616  -77.2366 H         1 UNK         0.0807 
    121 H121      -77.3150   20.8058  -77.3778 H         1 UNK         0.0807 
    122 H122      -80.2695   22.7805  -76.9479 H         1 UNK         0.2946 
    123 H123      -81.4389   24.9828  -77.0328 H         1 UNK         0.1144 
    124 H124      -81.8784   24.1602  -74.0910 H         1 UNK         0.0793 
    125 H125      -82.1960   23.1363  -75.4849 H         1 UNK         0.0793 
    126 H126      -83.1597   24.5789  -75.2253 H         1 UNK         0.0793 
    127 H127      -80.3207   26.5726  -74.9066 H         1 UNK         0.2896 
@<TRIPOS>BOND
     1    1    2 1    
     2    1   67 1    
     3    1   68 1    
     4    1   69 1    
     5    2    3 2    
     6    2    4 am   BACKBONE|DICT|INTERRES
     7    4    5 1    
     8    4   70 1    
     9    5    6 1    
    10    5   65 1    
    11    5   71 1    
    12    6    7 1    
    13    6   72 1    
    14    6   73 1    
    15    7    8 1    
    16    8    9 1    
    17    8   74 1    
    18    8   75 1    
    19    9   10 ar   
    20    9   14 ar   
    21   10   11 ar   
    22   10   76 1    
    23   11   12 ar   
    24   11   48 1    
    25   12   13 ar   
    26   12   77 1    
    27   13   14 ar   
    28   13   15 1    
    29   14   78 1    
    30   15   16 1    
    31   15   79 1    
    32   15   80 1    
    33   16   17 1    
    34   17   18 1    
    35   17   81 1    
    36   17   82 1    
    37   18   19 1    
    38   18   22 1    
    39   18   83 1    
    40   19   20 am   BACKBONE|DICT|INTERRES
    41   19   21 2    
    42   20   84 1    
    43   20   85 1    
    44   22   23 am   BACKBONE|DICT|INTERRES
    45   22   86 1    
    46   23   24 2    
    47   23   25 1    
    48   25   26 1    
    49   25   27 1    
    50   25   87 1    
    51   26   88 1    
    52   26   89 1    
    53   26   90 1    
    54   27   28 am   BACKBONE|DICT|INTERRES
    55   27   91 1    
    56   28   29 2    
    57   28   30 1    
    58   30   31 1    
    59   30   32 1    
    60   30   92 1    
    61   31   93 1    
    62   31   94 1    
    63   31   95 1    
    64   32   33 am   BACKBONE|DICT|INTERRES
    65   32   96 1    
    66   33   34 2    
    67   33   35 1    
    68   35   36 1    
    69   35   37 1    
    70   35   97 1    
    71   36   98 1    
    72   36   99 1    
    73   36  100 1    
    74   37   38 am   BACKBONE|DICT|INTERRES
    75   37  101 1    
    76   38   39 2    
    77   38   40 1    
    78   40   41 1    
    79   40   42 1    
    80   40  102 1    
    81   41  103 1    
    82   41  104 1    
    83   41  105 1    
    84   42   43 am   BACKBONE|DICT|INTERRES
    85   42  106 1    
    86   43   44 2    
    87   43   45 1    
    88   45   46 1    
    89   45   49 1    
    90   45  107 1    
    91   46   47 1    
    92   46  108 1    
    93   46  109 1    
    94   47   48 1    
    95   48  110 1    
    96   48  111 1    
    97   49   50 am   BACKBONE|DICT|INTERRES
    98   49  112 1    
    99   50   51 2    
   100   50   52 1    
   101   52   53 1    
   102   52   54 1    
   103   52  113 1    
   104   53  114 1    
   105   53  115 1    
   106   53  116 1    
   107   54   55 am   BACKBONE|DICT|INTERRES
   108   54  117 1    
   109   55   56 2    
   110   55   57 1    
   111   57   58 1    
   112   57   59 1    
   113   57  118 1    
   114   58  119 1    
   115   58  120 1    
   116   58  121 1    
   117   59   60 am   BACKBONE|DICT|INTERRES
   118   59  122 1    
   119   60   61 2    
   120   60   62 1    
   121   62   63 1    
   122   62   64 1    
   123   62  123 1    
   124   63  124 1    
   125   63  125 1    
   126   63  126 1    
   127   64   65 am   BACKBONE|DICT|INTERRES
   128   64  127 1    
   129   65   66 2    
@<TRIPOS>SUBSTRUCTURE
     1 UNK         1 GROUP             0       ****    0 ROOT    
