@<TRIPOS>MOLECULE
3R135
127   129    1
SMALL
USER_CHARGES


@<TRIPOS>ATOM
      1 CA        -76.9757   22.2205  -75.6478 C.3       0 UNK        -0.1998 
      2 C         -76.9803   22.7444  -74.2196 C.2       0 UNK         0.4909 
      3 O         -76.2738   22.2084  -73.3659 O.2       0 UNK        -0.5240 
      4 N         -77.7731   23.7888  -73.9601 N.am      1 UNK        -0.4739 
      5 CA        -77.9985   24.3704  -72.6346 C.3       1 UNK         0.0864 
      6 C6        -78.3132   25.8839  -72.7404 C.3       11 UNK        -0.0881 
      7 S7        -77.7233   26.8228  -71.2992 S.3       11 UNK        -0.2682 
      8 C8        -78.4934   28.4453  -71.6081 C.3       11 UNK         0.0289 
      9 C9        -78.0449   29.0797  -72.9206 C.ar      11 UNK        -0.0687 
     10 C10       -78.9913   29.4390  -73.8876 C.ar      11 UNK        -0.0823 
     11 C11       -78.5921   30.0600  -75.0753 C.ar      11 UNK        -0.0830 
     12 C12       -77.2356   30.3169  -75.2925 C.ar      11 UNK        -0.1021 
     13 C13       -76.2803   29.9642  -74.3368 C.ar      11 UNK        -0.0753 
     14 C14       -76.6901   29.3434  -73.1531 C.ar      11 UNK        -0.0933 
     15 C15       -74.8135   30.2820  -74.5857 C.3       11 UNK         0.0166 
     16 S16       -74.3327   31.8341  -73.7628 S.3       11 UNK        -0.2615 
     17 C17       -73.6929   31.2251  -72.1618 C.3       11 UNK        -0.0865 
     18 CA        -72.2418   31.6959  -71.8760 C.3       10 UNK         0.0862 
     19 C         -71.7468   31.1211  -70.5204 C.2       10 UNK         0.5551 
     20 N         -71.9156   31.8618  -69.4337 N.am      10 UNK        -0.7319 
     21 O         -71.2595   29.9948  -70.4416 O.2       10 UNK        -0.5018 
     22 N         -71.3431   31.3871  -72.9974 N.am      10 UNK        -0.4509 
     23 C         -70.0620   31.7498  -73.1150 C.2       10 UNK         0.4899 
     24 O         -69.4558   32.4113  -72.2702 O.2       10 UNK        -0.4839 
     25 CA        -69.3475   31.3056  -74.4097 C.3       9 UNK         0.0222 
     26 CB        -67.8864   31.7901  -74.4760 C.3       9 UNK        -0.1966 
     27 N         -69.3739   29.8515  -74.6009 N.am      9 UNK        -0.4218 
     28 C         -70.4305   29.1363  -75.0073 C.2       9 UNK         0.5020 
     29 O         -71.5381   29.6249  -75.2447 O.2       9 UNK        -0.5274 
     30 CA        -70.2242   27.6157  -75.1045 C.3       8 UNK         0.0270 
     31 CB        -70.4276   26.9651  -73.7254 C.3       8 UNK        -0.1976 
     32 N         -71.1449   26.9932  -76.0568 N.am      8 UNK        -0.4313 
     33 C         -71.1324   27.1673  -77.3859 C.2       8 UNK         0.5041 
     34 O         -70.2777   27.8272  -77.9798 O.2       8 UNK        -0.5577 
     35 CA        -72.2390   26.4666  -78.2001 C.3       7 UNK         0.0284 
     36 CB        -71.6479   25.3165  -79.0336 C.3       7 UNK        -0.1958 
     37 N         -73.3217   25.9375  -77.3625 N.am      7 UNK        -0.4454 
     38 C         -74.3541   26.6597  -76.9101 C.2       7 UNK         0.5089 
     39 O         -74.5479   27.8437  -77.1924 O.2       7 UNK        -0.5125 
     40 CA        -75.2929   25.9394  -75.9316 C.3       6 UNK         0.0408 
     41 CB        -74.7780   26.0870  -74.4893 C.3       6 UNK        -0.1791 
     42 N         -76.6506   26.4750  -76.0080 N.am      6 UNK        -0.4762 
     43 C         -77.5709   26.0833  -76.8969 C.2       6 UNK         0.5007 
     44 O         -77.3670   25.2343  -77.7683 O.2       6 UNK        -0.5032 
     45 CA        -78.9536   26.7536  -76.7770 C.3       5 UNK         0.0783 
     46 C46       -78.9926   28.1024  -77.5330 C.3       11 UNK        -0.0857 
     47 S47       -80.4180   29.0921  -76.9696 S.3       11 UNK        -0.2512 
     48 C48       -79.6202   30.4918  -76.1155 C.3       11 UNK         0.0225 
     49 N         -80.0198   25.8602  -77.2411 N.am      5 UNK        -0.4615 
     50 C         -80.4437   24.7669  -76.6010 C.2       4 UNK         0.5053 
     51 O         -80.0127   24.3964  -75.5047 O.2       4 UNK        -0.5105 
     52 CA        -81.5068   23.9330  -77.3267 C.3       4 UNK         0.0263 
     53 CB        -80.8410   22.9860  -78.3390 C.3       4 UNK        -0.1981 
     54 N         -82.2370   23.1373  -76.3446 N.am      4 UNK        -0.4224 
     55 C         -83.5569   23.1727  -76.1252 C.2       3 UNK         0.4895 
     56 O         -84.3525   23.8142  -76.8128 O.2       3 UNK        -0.5091 
     57 CA        -84.0873   22.3541  -74.9307 C.3       3 UNK         0.0250 
     58 CB        -84.6980   21.0292  -75.4165 C.3       3 UNK        -0.1996 
     59 N         -83.0636   22.0685  -73.9180 N.am      3 UNK        -0.4254 
     60 C         -82.5200   22.9843  -73.1036 C.2       2 UNK         0.5004 
     61 O         -82.8774   24.1625  -73.0678 O.2       2 UNK        -0.5226 
     62 CA        -81.3544   22.5358  -72.2128 C.3       2 UNK         0.0269 
     63 CB        -81.0893   21.0139  -72.2041 C.3       2 UNK        -0.1926 
     64 N         -80.1656   23.2445  -72.6731 N.am      2 UNK        -0.4687 
     65 C         -79.1287   23.6131  -71.9114 C.2       1 UNK         0.5165 
     66 O         -79.0363   23.3637  -70.7085 O.2       1 UNK        -0.5079 
     67 H67       -77.6403   22.7943  -76.2940 H         1 UNK         0.0900 
     68 H68       -77.2993   21.1803  -75.6672 H         1 UNK         0.0900 
     69 H69       -75.9705   22.2741  -76.0646 H         1 UNK         0.0900 
     70 H70       -78.3991   24.1238  -74.6887 H         1 UNK         0.2959 
     71 H71       -77.0864   24.2404  -72.0471 H         1 UNK         0.1079 
     72 H72       -77.8040   26.3099  -73.6022 H         1 UNK         0.0837 
     73 H73       -79.3762   26.0741  -72.9056 H         1 UNK         0.0837 
     74 H74       -79.5781   28.3297  -71.5811 H         1 UNK         0.0685 
     75 H75       -78.2366   29.1167  -70.7877 H         1 UNK         0.0685 
     76 H76       -80.0421   29.2495  -73.7141 H         1 UNK         0.1434 
     77 H77       -76.9201   30.8068  -76.2038 H         1 UNK         0.1329 
     78 H78       -75.9580   29.0763  -72.4039 H         1 UNK         0.1335 
     79 H79       -74.1787   29.4570  -74.2615 H         1 UNK         0.0680 
     80 H80       -74.6302   30.3869  -75.6563 H         1 UNK         0.0680 
     81 H81       -73.7460   30.1356  -72.1293 H         1 UNK         0.1032 
     82 H82       -74.3657   31.5787  -71.3782 H         1 UNK         0.1032 
     83 H83       -72.2572   32.7844  -71.7914 H         1 UNK         0.0461 
     84 H84       -71.6165   31.4988  -68.5420 H         1 UNK         0.3453 
     85 H85       -72.3235   32.7823  -69.4877 H         1 UNK         0.3453 
     86 H86       -71.7390   30.8293  -73.7488 H         1 UNK         0.2984 
     87 H87       -69.8831   31.7695  -75.2409 H         1 UNK         0.0554 
     88 H88       -67.4206   31.5210  -75.4242 H         1 UNK         0.0847 
     89 H89       -67.2824   31.3674  -73.6721 H         1 UNK         0.0847 
     90 H90       -67.8301   32.8761  -74.3891 H         1 UNK         0.0847 
     91 H91       -68.5197   29.3596  -74.3794 H         1 UNK         0.3141 
     92 H92       -69.2043   27.4215  -75.4435 H         1 UNK         0.0743 
     93 H93       -69.7341   27.3756  -72.9901 H         1 UNK         0.0784 
     94 H94       -70.2554   25.8892  -73.7630 H         1 UNK         0.0784 
     95 H95       -71.4368   27.1318  -73.3454 H         1 UNK         0.0784 
     96 H96       -71.9017   26.4569  -75.6643 H         1 UNK         0.3213 
     97 H97       -72.6521   27.2076  -78.8885 H         1 UNK         0.0855 
     98 H98       -70.8639   25.6799  -79.6996 H         1 UNK         0.0814 
     99 H99       -72.4079   24.8474  -79.6587 H         1 UNK         0.0814 
    100 H100      -71.2059   24.5442  -78.4028 H         1 UNK         0.0814 
    101 H101      -73.2496   24.9660  -77.0932 H         1 UNK         0.3105 
    102 H102      -75.3145   24.8761  -76.1802 H         1 UNK         0.0547 
    103 H103      -74.7384   27.1303  -74.1769 H         1 UNK         0.0837 
    104 H104      -73.7737   25.6762  -74.3834 H         1 UNK         0.0837 
    105 H105      -75.4126   25.5532  -73.7828 H         1 UNK         0.0837 
    106 H106      -76.8547   27.2516  -75.3943 H         1 UNK         0.3020 
    107 H107      -79.1252   26.9430  -75.7145 H         1 UNK         0.1245 
    108 H108      -79.0735   27.9436  -78.6099 H         1 UNK         0.0781 
    109 H109      -78.0732   28.6722  -77.3909 H         1 UNK         0.0781 
    110 H110      -80.3905   31.0921  -75.6294 H         1 UNK         0.0836 
    111 H111      -79.1619   31.1405  -76.8638 H         1 UNK         0.0836 
    112 H112      -80.4074   26.0745  -78.1478 H         1 UNK         0.3022 
    113 H113      -82.1817   24.6110  -77.8536 H         1 UNK         0.0747 
    114 H114      -81.5828   22.3806  -78.8602 H         1 UNK         0.0793 
    115 H115      -80.2886   23.5443  -79.0962 H         1 UNK         0.0793 
    116 H116      -80.1358   22.3084  -77.8555 H         1 UNK         0.0793 
    117 H117      -81.6588   22.6333  -75.6882 H         1 UNK         0.3047 
    118 H118      -84.8773   22.9426  -74.4588 H         1 UNK         0.0822 
    119 H119      -85.1453   20.4721  -74.5931 H         1 UNK         0.0807 
    120 H120      -83.9526   20.3897  -75.8910 H         1 UNK         0.0807 
    121 H121      -85.4864   21.2086  -76.1490 H         1 UNK         0.0807 
    122 H122      -82.7174   21.1205  -73.8763 H         1 UNK         0.2946 
    123 H123      -81.5982   22.8545  -71.1966 H         1 UNK         0.1144 
    124 H124      -81.9749   20.4582  -71.8928 H         1 UNK         0.0793 
    125 H125      -80.2969   20.7624  -71.4987 H         1 UNK         0.0793 
    126 H126      -80.7814   20.6436  -73.1826 H         1 UNK         0.0793 
    127 H127      -80.1802   23.5539  -73.6401 H         1 UNK         0.2896 
@<TRIPOS>BOND
     1    1    2 1    
     2    1   67 1    
     3    1   68 1    
     4    1   69 1    
     5    2    3 2    
     6    2    4 am   BACKBONE|DICT|INTERRES
     7    4    5 1    
     8    4   70 1    
     9    5    6 1    
    10    5   65 1    
    11    5   71 1    
    12    6    7 1    
    13    6   72 1    
    14    6   73 1    
    15    7    8 1    
    16    8    9 1    
    17    8   74 1    
    18    8   75 1    
    19    9   10 ar   
    20    9   14 ar   
    21   10   11 ar   
    22   10   76 1    
    23   11   12 ar   
    24   11   48 1    
    25   12   13 ar   
    26   12   77 1    
    27   13   14 ar   
    28   13   15 1    
    29   14   78 1    
    30   15   16 1    
    31   15   79 1    
    32   15   80 1    
    33   16   17 1    
    34   17   18 1    
    35   17   81 1    
    36   17   82 1    
    37   18   19 1    
    38   18   22 1    
    39   18   83 1    
    40   19   20 am   BACKBONE|DICT|INTERRES
    41   19   21 2    
    42   20   84 1    
    43   20   85 1    
    44   22   23 am   BACKBONE|DICT|INTERRES
    45   22   86 1    
    46   23   24 2    
    47   23   25 1    
    48   25   26 1    
    49   25   27 1    
    50   25   87 1    
    51   26   88 1    
    52   26   89 1    
    53   26   90 1    
    54   27   28 am   BACKBONE|DICT|INTERRES
    55   27   91 1    
    56   28   29 2    
    57   28   30 1    
    58   30   31 1    
    59   30   32 1    
    60   30   92 1    
    61   31   93 1    
    62   31   94 1    
    63   31   95 1    
    64   32   33 am   BACKBONE|DICT|INTERRES
    65   32   96 1    
    66   33   34 2    
    67   33   35 1    
    68   35   36 1    
    69   35   37 1    
    70   35   97 1    
    71   36   98 1    
    72   36   99 1    
    73   36  100 1    
    74   37   38 am   BACKBONE|DICT|INTERRES
    75   37  101 1    
    76   38   39 2    
    77   38   40 1    
    78   40   41 1    
    79   40   42 1    
    80   40  102 1    
    81   41  103 1    
    82   41  104 1    
    83   41  105 1    
    84   42   43 am   BACKBONE|DICT|INTERRES
    85   42  106 1    
    86   43   44 2    
    87   43   45 1    
    88   45   46 1    
    89   45   49 1    
    90   45  107 1    
    91   46   47 1    
    92   46  108 1    
    93   46  109 1    
    94   47   48 1    
    95   48  110 1    
    96   48  111 1    
    97   49   50 am   BACKBONE|DICT|INTERRES
    98   49  112 1    
    99   50   51 2    
   100   50   52 1    
   101   52   53 1    
   102   52   54 1    
   103   52  113 1    
   104   53  114 1    
   105   53  115 1    
   106   53  116 1    
   107   54   55 am   BACKBONE|DICT|INTERRES
   108   54  117 1    
   109   55   56 2    
   110   55   57 1    
   111   57   58 1    
   112   57   59 1    
   113   57  118 1    
   114   58  119 1    
   115   58  120 1    
   116   58  121 1    
   117   59   60 am   BACKBONE|DICT|INTERRES
   118   59  122 1    
   119   60   61 2    
   120   60   62 1    
   121   62   63 1    
   122   62   64 1    
   123   62  123 1    
   124   63  124 1    
   125   63  125 1    
   126   63  126 1    
   127   64   65 am   BACKBONE|DICT|INTERRES
   128   64  127 1    
   129   65   66 2    
@<TRIPOS>SUBSTRUCTURE
     1 UNK         1 GROUP             0       ****    0 ROOT    
