@<TRIPOS>MOLECULE
3R135
127   129    1
SMALL
USER_CHARGES


@<TRIPOS>ATOM
      1 CA        -77.4135   21.6767  -77.6764 C.3       0 UNK        -0.1998 
      2 C         -77.7773   21.4523  -76.2168 C.2       0 UNK         0.4909 
      3 O         -78.0931   20.3225  -75.8408 O.2       0 UNK        -0.5240 
      4 N         -77.7406   22.5124  -75.3992 N.am      1 UNK        -0.4739 
      5 CA        -78.2064   22.5049  -74.0088 C.3       1 UNK         0.0864 
      6 C6        -77.1673   23.1412  -73.0441 C.3       11 UNK        -0.0881 
      7 S7        -76.8581   24.9275  -73.2710 S.3       11 UNK        -0.2682 
      8 C8        -77.3482   25.5659  -71.6368 C.3       11 UNK         0.0289 
      9 C9        -77.1543   27.0707  -71.5378 C.ar      11 UNK        -0.0687 
     10 C10       -78.0610   27.9272  -72.1630 C.ar      11 UNK        -0.0823 
     11 C11       -77.8946   29.3126  -72.1000 C.ar      11 UNK        -0.0830 
     12 C12       -76.8368   29.8391  -71.3557 C.ar      11 UNK        -0.1021 
     13 C13       -75.9166   28.9973  -70.7174 C.ar      11 UNK        -0.0753 
     14 C14       -76.0863   27.6115  -70.8148 C.ar      11 UNK        -0.0933 
     15 C15       -74.7638   29.5496  -69.8775 C.3       11 UNK         0.0166 
     16 S16       -74.1669   31.2045  -70.3758 S.3       11 UNK        -0.2615 
     17 C17       -73.1203   30.8295  -71.8246 C.3       11 UNK        -0.0865 
     18 CA        -73.8423   30.9398  -73.2037 C.3       10 UNK         0.0862 
     19 C         -74.1168   32.3920  -73.7048 C.2       10 UNK         0.5551 
     20 N         -74.3277   33.3471  -72.8106 N.am      10 UNK        -0.7319 
     21 O         -74.1940   32.6541  -74.9041 O.2       10 UNK        -0.5018 
     22 N         -73.1789   30.0990  -74.2084 N.am      10 UNK        -0.4509 
     23 C         -71.9262   30.2556  -74.6626 C.2       10 UNK         0.4899 
     24 O         -71.1817   31.1821  -74.3365 O.2       10 UNK        -0.4839 
     25 CA        -71.4142   29.1497  -75.6061 C.3       9 UNK         0.0222 
     26 CB        -69.8883   29.1920  -75.8326 C.3       9 UNK        -0.1966 
     27 N         -71.8489   27.8232  -75.1559 N.am      9 UNK        -0.4218 
     28 C         -71.5860   27.2231  -73.9834 C.2       9 UNK         0.5020 
     29 O         -70.7736   27.6408  -73.1572 O.2       9 UNK        -0.5274 
     30 CA        -72.4100   25.9673  -73.6465 C.3       8 UNK         0.0270 
     31 CB        -73.4391   26.2933  -72.5526 C.3       8 UNK        -0.1976 
     32 N         -73.1187   25.4335  -74.8116 N.am      8 UNK        -0.4313 
     33 C         -72.5745   24.6047  -75.7112 C.2       8 UNK         0.5041 
     34 O         -71.4480   24.1184  -75.6058 O.2       8 UNK        -0.5577 
     35 CA        -73.4201   24.2901  -76.9553 C.3       7 UNK         0.0284 
     36 CB        -74.3647   23.1152  -76.6791 C.3       7 UNK        -0.1958 
     37 N         -74.1878   25.4457  -77.4351 N.am      7 UNK        -0.4454 
     38 C         -73.6293   26.5304  -77.9941 C.2       7 UNK         0.5089 
     39 O         -72.4206   26.6479  -78.1917 O.2       7 UNK        -0.5125 
     40 CA        -74.5542   27.7017  -78.3704 C.3       6 UNK         0.0408 
     41 CB        -74.9363   27.6221  -79.8565 C.3       6 UNK        -0.1791 
     42 N         -75.7740   27.7972  -77.5655 N.am      6 UNK        -0.4762 
     43 C         -75.8305   27.9695  -76.2369 C.2       6 UNK         0.5007 
     44 O         -74.8331   28.0570  -75.5181 O.2       6 UNK        -0.5032 
     45 CA        -77.2316   28.0562  -75.6006 C.3       5 UNK         0.0783 
     46 C46       -77.5764   29.5367  -75.2848 C.3       11 UNK        -0.0857 
     47 S47       -79.2322   29.7361  -74.5337 S.3       11 UNK        -0.2512 
     48 C48       -78.8497   30.2537  -72.8258 C.3       11 UNK         0.0225 
     49 N         -78.2971   27.4143  -76.3837 N.am      5 UNK        -0.4615 
     50 C         -78.3738   26.1357  -76.7741 C.2       4 UNK         0.5053 
     51 O         -77.4826   25.2973  -76.6130 O.2       4 UNK        -0.5105 
     52 CA        -79.6991   25.7509  -77.4481 C.3       4 UNK         0.0263 
     53 CB        -79.6375   24.4028  -78.1844 C.3       4 UNK        -0.1981 
     54 N         -80.7646   25.7071  -76.4457 N.am      4 UNK        -0.4224 
     55 C         -81.5538   26.7424  -76.1242 C.2       3 UNK         0.4895 
     56 O         -81.4640   27.8465  -76.6626 O.2       3 UNK        -0.5091 
     57 CA        -82.6344   26.5311  -75.0463 C.3       3 UNK         0.0250 
     58 CB        -84.0215   26.4136  -75.6997 C.3       3 UNK        -0.1996 
     59 N         -82.4044   25.3491  -74.2127 N.am      3 UNK        -0.4254 
     60 C         -81.6288   25.3239  -73.1208 C.2       2 UNK         0.5004 
     61 O         -81.0622   26.3140  -72.6618 O.2       2 UNK        -0.5226 
     62 CA        -81.4361   23.9639  -72.4186 C.3       2 UNK         0.0269 
     63 CB        -82.5678   22.9484  -72.6996 C.3       2 UNK        -0.1926 
     64 N         -80.1237   23.3723  -72.7177 N.am      2 UNK        -0.4687 
     65 C         -79.6273   23.1090  -73.9364 C.2       1 UNK         0.5165 
     66 O         -80.2650   23.3042  -74.9755 O.2       1 UNK        -0.5079 
     67 H67       -76.5576   21.0609  -77.9503 H         1 UNK         0.0900 
     68 H68       -77.1674   22.7187  -77.8778 H         1 UNK         0.0900 
     69 H69       -78.2500   21.3989  -78.3168 H         1 UNK         0.0900 
     70 H70       -77.5426   23.4356  -75.7751 H         1 UNK         0.2959 
     71 H71       -78.3296   21.4709  -73.6796 H         1 UNK         0.1079 
     72 H72       -76.2106   22.6319  -73.1707 H         1 UNK         0.0837 
     73 H73       -77.4483   22.9458  -72.0083 H         1 UNK         0.0837 
     74 H74       -78.3962   25.3266  -71.4522 H         1 UNK         0.0685 
     75 H75       -76.7701   25.0576  -70.8635 H         1 UNK         0.0685 
     76 H76       -78.8826   27.5109  -72.7277 H         1 UNK         0.1434 
     77 H77       -76.7310   30.9120  -71.2814 H         1 UNK         0.1329 
     78 H78       -75.3886   26.9503  -70.3192 H         1 UNK         0.1335 
     79 H79       -75.1051   29.6118  -68.8435 H         1 UNK         0.0680 
     80 H80       -73.9239   28.8531  -69.8799 H         1 UNK         0.0680 
     81 H81       -72.7223   29.8216  -71.6942 H         1 UNK         0.1032 
     82 H82       -72.2478   31.4848  -71.8013 H         1 UNK         0.1032 
     83 H83       -74.8277   30.4887  -73.1022 H         1 UNK         0.0461 
     84 H84       -74.5249   34.2856  -73.1203 H         1 UNK         0.3453 
     85 H85       -74.2966   33.1306  -71.8247 H         1 UNK         0.3453 
     86 H86       -73.7347   29.3343  -74.5811 H         1 UNK         0.2984 
     87 H87       -71.8975   29.3189  -76.5694 H         1 UNK         0.0554 
     88 H88       -69.5662   28.3971  -76.5051 H         1 UNK         0.0847 
     89 H89       -69.3351   29.0873  -74.8988 H         1 UNK         0.0847 
     90 H90       -69.5876   30.1388  -76.2826 H         1 UNK         0.0847 
     91 H91       -72.5542   27.3890  -75.7347 H         1 UNK         0.3141 
     92 H92       -71.7229   25.2122  -73.2586 H         1 UNK         0.0743 
     93 H93       -74.1647   27.0337  -72.8930 H         1 UNK         0.0784 
     94 H94       -73.9868   25.4024  -72.2454 H         1 UNK         0.0784 
     95 H95       -72.9545   26.6972  -71.6627 H         1 UNK         0.0784 
     96 H96       -74.0513   25.7891  -74.9763 H         1 UNK         0.3213 
     97 H97       -72.7316   23.9887  -77.7482 H         1 UNK         0.0855 
     98 H98       -75.1441   23.3837  -75.9656 H         1 UNK         0.0814 
     99 H99       -73.8237   22.2615  -76.2683 H         1 UNK         0.0814 
    100 H100      -74.8356   22.7815  -77.6016 H         1 UNK         0.0814 
    101 H101      -75.1915   25.4309  -77.2986 H         1 UNK         0.3105 
    102 H102      -73.9895   28.6228  -78.2126 H         1 UNK         0.0547 
    103 H103      -74.0467   27.5771  -80.4865 H         1 UNK         0.0837 
    104 H104      -75.5336   26.7356  -80.0734 H         1 UNK         0.0837 
    105 H105      -75.5060   28.4974  -80.1688 H         1 UNK         0.0837 
    106 H106      -76.6501   27.7298  -78.0629 H         1 UNK         0.3020 
    107 H107      -77.1618   27.5075  -74.6620 H         1 UNK         0.1245 
    108 H108      -76.8248   29.9752  -74.6254 H         1 UNK         0.0781 
    109 H109      -77.5574   30.1345  -76.1982 H         1 UNK         0.0781 
    110 H110      -78.4419   31.2652  -72.8593 H         1 UNK         0.0836 
    111 H111      -79.7802   30.3140  -72.2602 H         1 UNK         0.0836 
    112 H112      -79.1175   27.9898  -76.5303 H         1 UNK         0.3022 
    113 H113      -79.9197   26.5141  -78.1977 H         1 UNK         0.0747 
    114 H114      -80.5505   24.2251  -78.7526 H         1 UNK         0.0793 
    115 H115      -78.8062   24.3767  -78.8900 H         1 UNK         0.0793 
    116 H116      -79.5151   23.5717  -77.4928 H         1 UNK         0.0793 
    117 H117      -80.8247   24.8470  -75.9045 H         1 UNK         0.3047 
    118 H118      -82.6341   27.4201  -74.4113 H         1 UNK         0.0822 
    119 H119      -84.8080   26.3312  -74.9493 H         1 UNK         0.0807 
    120 H120      -84.0881   25.5436  -76.3543 H         1 UNK         0.0807 
    121 H121      -84.2445   27.2939  -76.3044 H         1 UNK         0.0807 
    122 H122      -82.8046   24.4790  -74.5333 H         1 UNK         0.2946 
    123 H123      -81.4484   24.1771  -71.3482 H         1 UNK         0.1144 
    124 H124      -83.5455   23.3770  -72.4745 H         1 UNK         0.0793 
    125 H125      -82.4580   22.0630  -72.0735 H         1 UNK         0.0793 
    126 H126      -82.5834   22.6126  -73.7368 H         1 UNK         0.0793 
    127 H127      -79.5377   23.1942  -71.9148 H         1 UNK         0.2896 
@<TRIPOS>BOND
     1    1    2 1    
     2    1   67 1    
     3    1   68 1    
     4    1   69 1    
     5    2    3 2    
     6    2    4 am   BACKBONE|DICT|INTERRES
     7    4    5 1    
     8    4   70 1    
     9    5    6 1    
    10    5   65 1    
    11    5   71 1    
    12    6    7 1    
    13    6   72 1    
    14    6   73 1    
    15    7    8 1    
    16    8    9 1    
    17    8   74 1    
    18    8   75 1    
    19    9   10 ar   
    20    9   14 ar   
    21   10   11 ar   
    22   10   76 1    
    23   11   12 ar   
    24   11   48 1    
    25   12   13 ar   
    26   12   77 1    
    27   13   14 ar   
    28   13   15 1    
    29   14   78 1    
    30   15   16 1    
    31   15   79 1    
    32   15   80 1    
    33   16   17 1    
    34   17   18 1    
    35   17   81 1    
    36   17   82 1    
    37   18   19 1    
    38   18   22 1    
    39   18   83 1    
    40   19   20 am   BACKBONE|DICT|INTERRES
    41   19   21 2    
    42   20   84 1    
    43   20   85 1    
    44   22   23 am   BACKBONE|DICT|INTERRES
    45   22   86 1    
    46   23   24 2    
    47   23   25 1    
    48   25   26 1    
    49   25   27 1    
    50   25   87 1    
    51   26   88 1    
    52   26   89 1    
    53   26   90 1    
    54   27   28 am   BACKBONE|DICT|INTERRES
    55   27   91 1    
    56   28   29 2    
    57   28   30 1    
    58   30   31 1    
    59   30   32 1    
    60   30   92 1    
    61   31   93 1    
    62   31   94 1    
    63   31   95 1    
    64   32   33 am   BACKBONE|DICT|INTERRES
    65   32   96 1    
    66   33   34 2    
    67   33   35 1    
    68   35   36 1    
    69   35   37 1    
    70   35   97 1    
    71   36   98 1    
    72   36   99 1    
    73   36  100 1    
    74   37   38 am   BACKBONE|DICT|INTERRES
    75   37  101 1    
    76   38   39 2    
    77   38   40 1    
    78   40   41 1    
    79   40   42 1    
    80   40  102 1    
    81   41  103 1    
    82   41  104 1    
    83   41  105 1    
    84   42   43 am   BACKBONE|DICT|INTERRES
    85   42  106 1    
    86   43   44 2    
    87   43   45 1    
    88   45   46 1    
    89   45   49 1    
    90   45  107 1    
    91   46   47 1    
    92   46  108 1    
    93   46  109 1    
    94   47   48 1    
    95   48  110 1    
    96   48  111 1    
    97   49   50 am   BACKBONE|DICT|INTERRES
    98   49  112 1    
    99   50   51 2    
   100   50   52 1    
   101   52   53 1    
   102   52   54 1    
   103   52  113 1    
   104   53  114 1    
   105   53  115 1    
   106   53  116 1    
   107   54   55 am   BACKBONE|DICT|INTERRES
   108   54  117 1    
   109   55   56 2    
   110   55   57 1    
   111   57   58 1    
   112   57   59 1    
   113   57  118 1    
   114   58  119 1    
   115   58  120 1    
   116   58  121 1    
   117   59   60 am   BACKBONE|DICT|INTERRES
   118   59  122 1    
   119   60   61 2    
   120   60   62 1    
   121   62   63 1    
   122   62   64 1    
   123   62  123 1    
   124   63  124 1    
   125   63  125 1    
   126   63  126 1    
   127   64   65 am   BACKBONE|DICT|INTERRES
   128   64  127 1    
   129   65   66 2    
@<TRIPOS>SUBSTRUCTURE
     1 UNK         1 GROUP             0       ****    0 ROOT    
