@<TRIPOS>MOLECULE
3R135
127   129    1
SMALL
USER_CHARGES


@<TRIPOS>ATOM
      1 CA        -80.7646   21.9506  -72.4817 C.3       0 UNK        -0.1998 
      2 C         -81.3006   23.3292  -72.8353 C.2       0 UNK         0.4909 
      3 O         -82.0193   23.4723  -73.8248 O.2       0 UNK        -0.5240 
      4 N         -80.9434   24.3470  -72.0408 N.am      1 UNK        -0.4739 
      5 CA        -81.3153   25.7547  -72.2234 C.3       1 UNK         0.0864 
      6 C6        -80.8147   26.6007  -71.0284 C.3       11 UNK        -0.0881 
      7 S7        -81.5345   28.2756  -70.9919 S.3       11 UNK        -0.2682 
      8 C8        -80.2024   29.2185  -70.1818 C.3       11 UNK         0.0289 
      9 C9        -78.9595   29.3480  -71.0537 C.ar      11 UNK        -0.0687 
     10 C10       -79.0000   30.1152  -72.2218 C.ar      11 UNK        -0.0823 
     11 C11       -77.8583   30.2717  -73.0142 C.ar      11 UNK        -0.0830 
     12 C12       -76.6637   29.6631  -72.6160 C.ar      11 UNK        -0.1021 
     13 C13       -76.6125   28.8819  -71.4593 C.ar      11 UNK        -0.0753 
     14 C14       -77.7629   28.7263  -70.6806 C.ar      11 UNK        -0.0933 
     15 C15       -75.3056   28.2220  -71.0544 C.3       11 UNK         0.0166 
     16 S16       -74.3192   29.3494  -70.0231 S.3       11 UNK        -0.2615 
     17 C17       -72.6217   28.7745  -70.3646 C.3       11 UNK        -0.0865 
     18 CA        -71.8951   29.6974  -71.3772 C.3       10 UNK         0.0862 
     19 C         -70.3825   29.3555  -71.4511 C.2       10 UNK         0.5551 
     20 N         -69.5687   29.9674  -70.6021 N.am      10 UNK        -0.7319 
     21 O         -69.9483   28.5155  -72.2372 O.2       10 UNK        -0.5018 
     22 N         -72.5315   29.6408  -72.6989 N.am      10 UNK        -0.4509 
     23 C         -72.3592   30.5266  -73.6834 C.2       10 UNK         0.4899 
     24 O         -71.7151   31.5705  -73.5657 O.2       10 UNK        -0.4839 
     25 CA        -72.9991   30.1537  -75.0349 C.3       9 UNK         0.0222 
     26 CB        -72.9671   31.3101  -76.0506 C.3       9 UNK        -0.1966 
     27 N         -72.3502   28.9786  -75.6229 N.am      9 UNK        -0.4218 
     28 C         -72.5505   27.7148  -75.2291 C.2       9 UNK         0.5020 
     29 O         -73.3197   27.3993  -74.3186 O.2       9 UNK        -0.5274 
     30 CA        -71.7276   26.6320  -75.9326 C.3       8 UNK         0.0270 
     31 CB        -70.6848   26.0273  -74.9735 C.3       8 UNK        -0.1976 
     32 N         -72.6275   25.5957  -76.4320 N.am      8 UNK        -0.4313 
     33 C         -72.3388   24.7432  -77.4238 C.2       8 UNK         0.5041 
     34 O         -71.2495   24.7051  -77.9987 O.2       8 UNK        -0.5577 
     35 CA        -73.4546   23.7877  -77.8760 C.3       7 UNK         0.0284 
     36 CB        -73.6679   22.6489  -76.8642 C.3       7 UNK        -0.1958 
     37 N         -74.7086   24.5072  -78.1011 N.am      7 UNK        -0.4454 
     38 C         -74.9902   25.1966  -79.2163 C.2       7 UNK         0.5089 
     39 O         -74.2593   25.2207  -80.2074 O.2       7 UNK        -0.5125 
     40 CA        -76.3045   26.0002  -79.2442 C.3       6 UNK         0.0408 
     41 CB        -77.4294   25.1660  -79.8763 C.3       6 UNK        -0.1791 
     42 N         -76.7353   26.4740  -77.9276 N.am      6 UNK        -0.4762 
     43 C         -76.0682   27.3604  -77.1732 C.2       6 UNK         0.5007 
     44 O         -75.0368   27.9263  -77.5357 O.2       6 UNK        -0.5032 
     45 CA        -76.6342   27.6226  -75.7612 C.3       5 UNK         0.0783 
     46 C46       -77.7485   28.7014  -75.8050 C.3       11 UNK        -0.0857 
     47 S47       -77.0519   30.3864  -75.7171 S.3       11 UNK        -0.2512 
     48 C48       -77.9347   31.1081  -74.2894 C.3       11 UNK         0.0225 
     49 N         -77.0861   26.3944  -75.0945 N.am      5 UNK        -0.4615 
     50 C         -76.3407   25.2996  -74.8804 C.2       4 UNK         0.5053 
     51 O         -75.1605   25.1962  -75.2039 O.2       4 UNK        -0.5105 
     52 CA        -77.0547   24.0764  -74.2892 C.3       4 UNK         0.0263 
     53 CB        -77.2384   24.2076  -72.7679 C.3       4 UNK        -0.1981 
     54 N         -78.3420   23.8654  -74.9525 N.am      4 UNK        -0.4224 
     55 C         -78.4671   23.3750  -76.1960 C.2       3 UNK         0.4895 
     56 O         -77.5247   22.9333  -76.8531 O.2       3 UNK        -0.5091 
     57 CA        -79.8666   23.4140  -76.8340 C.3       3 UNK         0.0250 
     58 CB        -80.5972   22.0769  -76.6355 C.3       3 UNK        -0.1996 
     59 N         -80.6894   24.5151  -76.3245 N.am      3 UNK        -0.4254 
     60 C         -80.4848   25.8035  -76.6409 C.2       2 UNK         0.5004 
     61 O         -79.6162   26.1798  -77.4272 O.2       2 UNK        -0.5226 
     62 CA        -81.3517   26.8554  -75.9236 C.3       2 UNK         0.0269 
     63 CB        -82.6394   27.1246  -76.7171 C.3       2 UNK        -0.1926 
     64 N         -81.6926   26.4904  -74.5443 N.am      2 UNK        -0.4687 
     65 C         -80.7903   26.2815  -73.5757 C.2       1 UNK         0.5165 
     66 O         -79.5783   26.4172  -73.7437 O.2       1 UNK        -0.5079 
     67 H67       -80.3136   21.9321  -71.4897 H         1 UNK         0.0900 
     68 H68       -81.5714   21.2183  -72.4986 H         1 UNK         0.0900 
     69 H69       -80.0091   21.6437  -73.2042 H         1 UNK         0.0900 
     70 H70       -80.3400   24.1602  -71.2528 H         1 UNK         0.2959 
     71 H71       -82.4067   25.7972  -72.2344 H         1 UNK         0.1079 
     72 H72       -79.7248   26.6557  -71.0307 H         1 UNK         0.0837 
     73 H73       -81.0873   26.1169  -70.0890 H         1 UNK         0.0837 
     74 H74       -80.5739   30.2166  -69.9456 H         1 UNK         0.0685 
     75 H75       -79.9623   28.7491  -69.2265 H         1 UNK         0.0685 
     76 H76       -79.9277   30.5903  -72.5105 H         1 UNK         0.1434 
     77 H77       -75.7700   29.7910  -73.2094 H         1 UNK         0.1329 
     78 H78       -77.7209   28.1328  -69.7777 H         1 UNK         0.1335 
     79 H79       -75.4941   27.2977  -70.5062 H         1 UNK         0.0680 
     80 H80       -74.7491   27.9405  -71.9496 H         1 UNK         0.0680 
     81 H81       -72.0894   28.7627  -69.4113 H         1 UNK         0.1032 
     82 H82       -72.6329   27.7400  -70.7137 H         1 UNK         0.1032 
     83 H83       -71.9820   30.7254  -71.0183 H         1 UNK         0.0461 
     84 H84       -69.9155   30.6517  -69.9476 H         1 UNK         0.3453 
     85 H85       -68.5848   29.7486  -70.6229 H         1 UNK         0.3453 
     86 H86       -72.9890   28.7680  -72.9423 H         1 UNK         0.2984 
     87 H87       -74.0476   29.9152  -74.8480 H         1 UNK         0.0554 
     88 H88       -73.4628   32.1945  -75.6481 H         1 UNK         0.0847 
     89 H89       -73.4880   31.0412  -76.9700 H         1 UNK         0.0847 
     90 H90       -71.9474   31.5964  -76.3109 H         1 UNK         0.0847 
     91 H91       -71.6763   29.1581  -76.3533 H         1 UNK         0.3141 
     92 H92       -71.2082   27.0827  -76.7811 H         1 UNK         0.0743 
     93 H93       -71.1609   25.5291  -74.1279 H         1 UNK         0.0784 
     94 H94       -70.0504   25.2989  -75.4784 H         1 UNK         0.0784 
     95 H95       -70.0313   26.8017  -74.5693 H         1 UNK         0.0784 
     96 H96       -73.5474   25.5628  -75.9879 H         1 UNK         0.3213 
     97 H97       -73.1416   23.3317  -78.8181 H         1 UNK         0.0855 
     98 H98       -73.9387   23.0180  -75.8755 H         1 UNK         0.0814 
     99 H99       -72.7573   22.0595  -76.7496 H         1 UNK         0.0814 
    100 H100      -74.4552   21.9702  -77.1929 H         1 UNK         0.0814 
    101 H101      -75.3458   24.5694  -77.3168 H         1 UNK         0.3105 
    102 H102      -76.1396   26.8785  -79.8717 H         1 UNK         0.0547 
    103 H103      -77.1555   24.8383  -80.8800 H         1 UNK         0.0837 
    104 H104      -77.6462   24.2727  -79.2900 H         1 UNK         0.0837 
    105 H105      -78.3511   25.7416  -79.9638 H         1 UNK         0.0837 
    106 H106      -77.6276   26.1273  -77.5865 H         1 UNK         0.3020 
    107 H107      -75.8070   27.9917  -75.1515 H         1 UNK         0.1245 
    108 H108      -78.4387   28.5637  -74.9726 H         1 UNK         0.0781 
    109 H109      -78.3666   28.6161  -76.7011 H         1 UNK         0.0781 
    110 H110      -78.9748   31.2643  -74.5801 H         1 UNK         0.0836 
    111 H111      -77.5208   32.0962  -74.0847 H         1 UNK         0.0836 
    112 H112      -78.0382   26.4020  -74.7349 H         1 UNK         0.3022 
    113 H113      -76.4270   23.2011  -74.4719 H         1 UNK         0.0747 
    114 H114      -77.7494   23.3388  -72.3534 H         1 UNK         0.0793 
    115 H115      -76.2700   24.2807  -72.2711 H         1 UNK         0.0793 
    116 H116      -77.8049   25.0959  -72.4909 H         1 UNK         0.0793 
    117 H117      -79.1518   24.2774  -74.5112 H         1 UNK         0.3047 
    118 H118      -79.7307   23.5627  -77.9076 H         1 UNK         0.0822 
    119 H119      -81.5707   22.0804  -77.1258 H         1 UNK         0.0807 
    120 H120      -80.7541   21.8491  -75.5818 H         1 UNK         0.0807 
    121 H121      -80.0227   21.2538  -77.0629 H         1 UNK         0.0807 
    122 H122      -81.3943   24.2812  -75.6318 H         1 UNK         0.2946 
    123 H123      -80.7723   27.7805  -75.8871 H         1 UNK         0.1144 
    124 H124      -83.2183   27.9340  -76.2719 H         1 UNK         0.0793 
    125 H125      -83.2770   26.2410  -76.7655 H         1 UNK         0.0793 
    126 H126      -82.4106   27.4185  -77.7427 H         1 UNK         0.0793 
    127 H127      -82.6685   26.3184  -74.3482 H         1 UNK         0.2896 
@<TRIPOS>BOND
     1    1    2 1    
     2    1   67 1    
     3    1   68 1    
     4    1   69 1    
     5    2    3 2    
     6    2    4 am   BACKBONE|DICT|INTERRES
     7    4    5 1    
     8    4   70 1    
     9    5    6 1    
    10    5   65 1    
    11    5   71 1    
    12    6    7 1    
    13    6   72 1    
    14    6   73 1    
    15    7    8 1    
    16    8    9 1    
    17    8   74 1    
    18    8   75 1    
    19    9   10 ar   
    20    9   14 ar   
    21   10   11 ar   
    22   10   76 1    
    23   11   12 ar   
    24   11   48 1    
    25   12   13 ar   
    26   12   77 1    
    27   13   14 ar   
    28   13   15 1    
    29   14   78 1    
    30   15   16 1    
    31   15   79 1    
    32   15   80 1    
    33   16   17 1    
    34   17   18 1    
    35   17   81 1    
    36   17   82 1    
    37   18   19 1    
    38   18   22 1    
    39   18   83 1    
    40   19   20 am   BACKBONE|DICT|INTERRES
    41   19   21 2    
    42   20   84 1    
    43   20   85 1    
    44   22   23 am   BACKBONE|DICT|INTERRES
    45   22   86 1    
    46   23   24 2    
    47   23   25 1    
    48   25   26 1    
    49   25   27 1    
    50   25   87 1    
    51   26   88 1    
    52   26   89 1    
    53   26   90 1    
    54   27   28 am   BACKBONE|DICT|INTERRES
    55   27   91 1    
    56   28   29 2    
    57   28   30 1    
    58   30   31 1    
    59   30   32 1    
    60   30   92 1    
    61   31   93 1    
    62   31   94 1    
    63   31   95 1    
    64   32   33 am   BACKBONE|DICT|INTERRES
    65   32   96 1    
    66   33   34 2    
    67   33   35 1    
    68   35   36 1    
    69   35   37 1    
    70   35   97 1    
    71   36   98 1    
    72   36   99 1    
    73   36  100 1    
    74   37   38 am   BACKBONE|DICT|INTERRES
    75   37  101 1    
    76   38   39 2    
    77   38   40 1    
    78   40   41 1    
    79   40   42 1    
    80   40  102 1    
    81   41  103 1    
    82   41  104 1    
    83   41  105 1    
    84   42   43 am   BACKBONE|DICT|INTERRES
    85   42  106 1    
    86   43   44 2    
    87   43   45 1    
    88   45   46 1    
    89   45   49 1    
    90   45  107 1    
    91   46   47 1    
    92   46  108 1    
    93   46  109 1    
    94   47   48 1    
    95   48  110 1    
    96   48  111 1    
    97   49   50 am   BACKBONE|DICT|INTERRES
    98   49  112 1    
    99   50   51 2    
   100   50   52 1    
   101   52   53 1    
   102   52   54 1    
   103   52  113 1    
   104   53  114 1    
   105   53  115 1    
   106   53  116 1    
   107   54   55 am   BACKBONE|DICT|INTERRES
   108   54  117 1    
   109   55   56 2    
   110   55   57 1    
   111   57   58 1    
   112   57   59 1    
   113   57  118 1    
   114   58  119 1    
   115   58  120 1    
   116   58  121 1    
   117   59   60 am   BACKBONE|DICT|INTERRES
   118   59  122 1    
   119   60   61 2    
   120   60   62 1    
   121   62   63 1    
   122   62   64 1    
   123   62  123 1    
   124   63  124 1    
   125   63  125 1    
   126   63  126 1    
   127   64   65 am   BACKBONE|DICT|INTERRES
   128   64  127 1    
   129   65   66 2    
@<TRIPOS>SUBSTRUCTURE
     1 UNK         1 GROUP             0       ****    0 ROOT    
