@<TRIPOS>MOLECULE
3R135
127   129    1
SMALL
USER_CHARGES


@<TRIPOS>ATOM
      1 CA        -85.3554   25.8734  -70.8271 C.3       0 UNK        -0.1998 
      2 C         -84.8208   26.4754  -72.1180 C.2       0 UNK         0.4909 
      3 O         -85.5320   26.4966  -73.1229 O.2       0 UNK        -0.5240 
      4 N         -83.5751   26.9693  -72.0956 N.am      1 UNK        -0.4739 
      5 CA        -82.8817   27.5530  -73.2521 C.3       1 UNK         0.0864 
      6 C6        -81.6070   28.3120  -72.8097 C.3       11 UNK        -0.0881 
      7 S7        -81.1329   29.6517  -73.9524 S.3       11 UNK        -0.2682 
      8 C8        -80.0760   30.6726  -72.8738 C.3       11 UNK         0.0289 
      9 C9        -78.7163   30.0283  -72.6392 C.ar      11 UNK        -0.0687 
     10 C10       -78.5604   29.0426  -71.6606 C.ar      11 UNK        -0.0823 
     11 C11       -77.3236   28.4248  -71.4575 C.ar      11 UNK        -0.0830 
     12 C12       -76.2215   28.8383  -72.2137 C.ar      11 UNK        -0.1021 
     13 C13       -76.3576   29.8402  -73.1795 C.ar      11 UNK        -0.0753 
     14 C14       -77.6096   30.4234  -73.3953 C.ar      11 UNK        -0.0933 
     15 C15       -75.1619   30.2886  -74.0043 C.3       11 UNK         0.0166 
     16 S16       -74.2790   31.6663  -73.2066 S.3       11 UNK        -0.2615 
     17 C17       -73.0593   30.7816  -72.1722 C.3       11 UNK        -0.0865 
     18 CA        -71.6475   30.7658  -72.8171 C.3       10 UNK         0.0862 
     19 C         -70.5831   30.1527  -71.8591 C.2       10 UNK         0.5551 
     20 N         -69.8101   29.1495  -72.2609 N.am      10 UNK        -0.7319 
     21 O         -70.4487   30.6059  -70.7251 O.2       10 UNK        -0.5018 
     22 N         -71.6779   30.1451  -74.1489 N.am      10 UNK        -0.4509 
     23 C         -70.8729   30.4560  -75.1698 C.2       10 UNK         0.4899 
     24 O         -70.0295   31.3535  -75.1331 O.2       10 UNK        -0.4839 
     25 CA        -71.0488   29.6052  -76.4438 C.3       9 UNK         0.0222 
     26 CB        -69.8201   29.6638  -77.3759 C.3       9 UNK        -0.1966 
     27 N         -71.4218   28.2103  -76.1659 N.am      9 UNK        -0.4218 
     28 C         -70.7260   27.3144  -75.4424 C.2       9 UNK         0.5020 
     29 O         -69.6741   27.5820  -74.8593 O.2       9 UNK        -0.5274 
     30 CA        -71.2979   25.8892  -75.3066 C.3       8 UNK         0.0270 
     31 CB        -71.6530   25.5861  -73.8406 C.3       8 UNK        -0.1976 
     32 N         -72.4688   25.6521  -76.1566 N.am      8 UNK        -0.4313 
     33 C         -72.4045   25.4386  -77.4802 C.2       8 UNK         0.5041 
     34 O         -71.3424   25.3342  -78.0952 O.2       8 UNK        -0.5577 
     35 CA        -73.7242   25.3482  -78.2710 C.3       7 UNK         0.0284 
     36 CB        -74.0063   23.8892  -78.6662 C.3       7 UNK        -0.1958 
     37 N         -74.8987   25.8954  -77.5849 N.am      7 UNK        -0.4454 
     38 C         -75.0617   27.1659  -77.1887 C.2       7 UNK         0.5089 
     39 O         -74.2233   28.0515  -77.3633 O.2       7 UNK        -0.5125 
     40 CA        -76.3406   27.4733  -76.3858 C.3       6 UNK         0.0408 
     41 CB        -77.5331   27.7205  -77.3205 C.3       6 UNK        -0.1791 
     42 N         -76.6736   26.4243  -75.4137 N.am      6 UNK        -0.4762 
     43 C         -75.8604   26.0316  -74.4192 C.2       6 UNK         0.5007 
     44 O         -74.7511   26.5250  -74.2168 O.2       6 UNK        -0.5032 
     45 CA        -76.3251   24.8444  -73.5573 C.3       5 UNK         0.0783 
     46 C46       -77.2581   25.2763  -72.3975 C.3       11 UNK        -0.0857 
     47 S47       -76.2852   25.8532  -70.9623 S.3       11 UNK        -0.2512 
     48 C48       -77.1973   27.3306  -70.4020 C.3       11 UNK         0.0225 
     49 N         -76.9168   23.8048  -74.4024 N.am      5 UNK        -0.4615 
     50 C         -76.1912   22.9066  -75.0862 C.2       4 UNK         0.5053 
     51 O         -74.9662   22.8163  -75.0062 O.2       4 UNK        -0.5105 
     52 CA        -76.9441   21.9532  -76.0320 C.3       4 UNK         0.0263 
     53 CB        -77.3243   20.6583  -75.2966 C.3       4 UNK        -0.1981 
     54 N         -78.1453   22.5439  -76.6242 N.am      4 UNK        -0.4224 
     55 C         -78.1522   23.6000  -77.4499 C.2       3 UNK         0.4895 
     56 O         -77.1357   24.1652  -77.8474 O.2       3 UNK        -0.5091 
     57 CA        -79.5260   24.1544  -77.8607 C.3       3 UNK         0.0250 
     58 CB        -79.9923   23.5108  -79.1759 C.3       3 UNK        -0.1996 
     59 N         -80.5640   23.9893  -76.8377 N.am      3 UNK        -0.4254 
     60 C         -80.5093   24.4875  -75.5943 C.2       2 UNK         0.5004 
     61 O         -79.5421   25.1052  -75.1367 O.2       2 UNK        -0.5226 
     62 CA        -81.7130   24.1743  -74.6916 C.3       2 UNK         0.0269 
     63 CB        -81.3940   22.9755  -73.7831 C.3       2 UNK        -0.1926 
     64 N         -82.0943   25.3146  -73.8593 N.am      2 UNK        -0.4687 
     65 C         -82.5552   26.4875  -74.3200 C.2       1 UNK         0.5165 
     66 O         -82.7561   26.7276  -75.5120 O.2       1 UNK        -0.5079 
     67 H67       -84.6276   25.9297  -70.0178 H         1 UNK         0.0900 
     68 H68       -86.2546   26.4016  -70.5111 H         1 UNK         0.0900 
     69 H69       -85.6116   24.8254  -70.9803 H         1 UNK         0.0900 
     70 H70       -83.0469   26.9301  -71.2354 H         1 UNK         0.2959 
     71 H71       -83.5718   28.2681  -73.7066 H         1 UNK         0.1079 
     72 H72       -81.7766   28.7694  -71.8336 H         1 UNK         0.0837 
     73 H73       -80.7640   27.6299  -72.6822 H         1 UNK         0.0837 
     74 H74       -79.9495   31.6516  -73.3386 H         1 UNK         0.0685 
     75 H75       -80.5776   30.8549  -71.9222 H         1 UNK         0.0685 
     76 H76       -79.4096   28.7477  -71.0607 H         1 UNK         0.1434 
     77 H77       -75.2604   28.3686  -72.0586 H         1 UNK         0.1329 
     78 H78       -77.7206   31.1907  -74.1493 H         1 UNK         0.1335 
     79 H79       -75.4962   30.6188  -74.9890 H         1 UNK         0.0680 
     80 H80       -74.4869   29.4504  -74.1830 H         1 UNK         0.0680 
     81 H81       -73.0288   31.2862  -71.2047 H         1 UNK         0.1032 
     82 H82       -73.4005   29.7665  -71.9672 H         1 UNK         0.1032 
     83 H83       -71.3480   31.8079  -72.9446 H         1 UNK         0.0461 
     84 H84       -69.1261   28.7747  -71.6234 H         1 UNK         0.3453 
     85 H85       -69.8784   28.7724  -73.1992 H         1 UNK         0.3453 
     86 H86       -72.3214   29.3781  -74.2672 H         1 UNK         0.2984 
     87 H87       -71.8921   30.0399  -76.9824 H         1 UNK         0.0554 
     88 H88       -69.6195   30.6865  -77.6972 H         1 UNK         0.0847 
     89 H89       -69.9759   29.0681  -78.2753 H         1 UNK         0.0847 
     90 H90       -68.9200   29.2961  -76.8819 H         1 UNK         0.0847 
     91 H91       -72.3027   27.9138  -76.5755 H         1 UNK         0.3141 
     92 H92       -70.5106   25.1951  -75.6084 H         1 UNK         0.0743 
     93 H93       -72.3213   26.3373  -73.4196 H         1 UNK         0.0784 
     94 H94       -72.1306   24.6115  -73.7359 H         1 UNK         0.0784 
     95 H95       -70.7558   25.5759  -73.2204 H         1 UNK         0.0784 
     96 H96       -73.3760   25.7494  -75.7140 H         1 UNK         0.3213 
     97 H97       -73.5849   25.9286  -79.1854 H         1 UNK         0.0855 
     98 H98       -74.2111   23.2694  -77.7923 H         1 UNK         0.0814 
     99 H99       -73.1544   23.4498  -79.1870 H         1 UNK         0.0814 
    100 H100      -74.8631   23.8180  -79.3364 H         1 UNK         0.0814 
    101 H101      -75.6766   25.2518  -77.4502 H         1 UNK         0.3105 
    102 H102      -76.1658   28.3892  -75.8218 H         1 UNK         0.0547 
    103 H103      -77.3425   28.5743  -77.9718 H         1 UNK         0.0837 
    104 H104      -77.7277   26.8624  -77.9628 H         1 UNK         0.0837 
    105 H105      -78.4424   27.9372  -76.7590 H         1 UNK         0.0837 
    106 H106      -77.5783   25.9756  -75.5054 H         1 UNK         0.3020 
    107 H107      -75.4232   24.4174  -73.1105 H         1 UNK         0.1245 
    108 H108      -77.8508   24.4266  -72.0551 H         1 UNK         0.0781 
    109 H109      -77.9791   26.0309  -72.7187 H         1 UNK         0.0781 
    110 H110      -76.6872   27.7457  -69.5318 H         1 UNK         0.0836 
    111 H111      -78.1817   27.0111  -70.0562 H         1 UNK         0.0836 
    112 H112      -77.9139   23.8724  -74.5673 H         1 UNK         0.3022 
    113 H113      -76.2641   21.6979  -76.8477 H         1 UNK         0.0747 
    114 H114      -77.7802   19.9358  -75.9738 H         1 UNK         0.0793 
    115 H115      -76.4427   20.1823  -74.8646 H         1 UNK         0.0793 
    116 H116      -78.0252   20.8461  -74.4821 H         1 UNK         0.0793 
    117 H117      -79.0317   22.1422  -76.3568 H         1 UNK         0.3047 
    118 H118      -79.4088   25.2259  -78.0299 H         1 UNK         0.0822 
    119 H119      -80.9164   23.9644  -79.5350 H         1 UNK         0.0807 
    120 H120      -80.1638   22.4393  -79.0647 H         1 UNK         0.0807 
    121 H121      -79.2448   23.6413  -79.9600 H         1 UNK         0.0807 
    122 H122      -81.3902   23.4813  -77.1205 H         1 UNK         0.2946 
    123 H123      -82.5714   23.9223  -75.3185 H         1 UNK         0.1144 
    124 H124      -82.2494   22.7091  -73.1618 H         1 UNK         0.0793 
    125 H125      -80.5507   23.1827  -73.1224 H         1 UNK         0.0793 
    126 H126      -81.1377   22.0935  -74.3716 H         1 UNK         0.0793 
    127 H127      -81.9627   25.2123  -72.8642 H         1 UNK         0.2896 
@<TRIPOS>BOND
     1    1    2 1    
     2    1   67 1    
     3    1   68 1    
     4    1   69 1    
     5    2    3 2    
     6    2    4 am   BACKBONE|DICT|INTERRES
     7    4    5 1    
     8    4   70 1    
     9    5    6 1    
    10    5   65 1    
    11    5   71 1    
    12    6    7 1    
    13    6   72 1    
    14    6   73 1    
    15    7    8 1    
    16    8    9 1    
    17    8   74 1    
    18    8   75 1    
    19    9   10 ar   
    20    9   14 ar   
    21   10   11 ar   
    22   10   76 1    
    23   11   12 ar   
    24   11   48 1    
    25   12   13 ar   
    26   12   77 1    
    27   13   14 ar   
    28   13   15 1    
    29   14   78 1    
    30   15   16 1    
    31   15   79 1    
    32   15   80 1    
    33   16   17 1    
    34   17   18 1    
    35   17   81 1    
    36   17   82 1    
    37   18   19 1    
    38   18   22 1    
    39   18   83 1    
    40   19   20 am   BACKBONE|DICT|INTERRES
    41   19   21 2    
    42   20   84 1    
    43   20   85 1    
    44   22   23 am   BACKBONE|DICT|INTERRES
    45   22   86 1    
    46   23   24 2    
    47   23   25 1    
    48   25   26 1    
    49   25   27 1    
    50   25   87 1    
    51   26   88 1    
    52   26   89 1    
    53   26   90 1    
    54   27   28 am   BACKBONE|DICT|INTERRES
    55   27   91 1    
    56   28   29 2    
    57   28   30 1    
    58   30   31 1    
    59   30   32 1    
    60   30   92 1    
    61   31   93 1    
    62   31   94 1    
    63   31   95 1    
    64   32   33 am   BACKBONE|DICT|INTERRES
    65   32   96 1    
    66   33   34 2    
    67   33   35 1    
    68   35   36 1    
    69   35   37 1    
    70   35   97 1    
    71   36   98 1    
    72   36   99 1    
    73   36  100 1    
    74   37   38 am   BACKBONE|DICT|INTERRES
    75   37  101 1    
    76   38   39 2    
    77   38   40 1    
    78   40   41 1    
    79   40   42 1    
    80   40  102 1    
    81   41  103 1    
    82   41  104 1    
    83   41  105 1    
    84   42   43 am   BACKBONE|DICT|INTERRES
    85   42  106 1    
    86   43   44 2    
    87   43   45 1    
    88   45   46 1    
    89   45   49 1    
    90   45  107 1    
    91   46   47 1    
    92   46  108 1    
    93   46  109 1    
    94   47   48 1    
    95   48  110 1    
    96   48  111 1    
    97   49   50 am   BACKBONE|DICT|INTERRES
    98   49  112 1    
    99   50   51 2    
   100   50   52 1    
   101   52   53 1    
   102   52   54 1    
   103   52  113 1    
   104   53  114 1    
   105   53  115 1    
   106   53  116 1    
   107   54   55 am   BACKBONE|DICT|INTERRES
   108   54  117 1    
   109   55   56 2    
   110   55   57 1    
   111   57   58 1    
   112   57   59 1    
   113   57  118 1    
   114   58  119 1    
   115   58  120 1    
   116   58  121 1    
   117   59   60 am   BACKBONE|DICT|INTERRES
   118   59  122 1    
   119   60   61 2    
   120   60   62 1    
   121   62   63 1    
   122   62   64 1    
   123   62  123 1    
   124   63  124 1    
   125   63  125 1    
   126   63  126 1    
   127   64   65 am   BACKBONE|DICT|INTERRES
   128   64  127 1    
   129   65   66 2    
@<TRIPOS>SUBSTRUCTURE
     1 UNK         1 GROUP             0       ****    0 ROOT    
