@<TRIPOS>MOLECULE
3R135
127   129    1
SMALL
USER_CHARGES


@<TRIPOS>ATOM
      1 CA        -82.0528   26.3837  -70.9245 C.3       0 UNK        -0.1998 
      2 C         -83.1739   27.4019  -71.1330 C.2       0 UNK         0.4909 
      3 O         -83.9539   27.6104  -70.2058 O.2       0 UNK        -0.5240 
      4 N         -83.3199   28.0688  -72.2903 N.am      1 UNK        -0.4739 
      5 CA        -82.5561   27.9814  -73.5468 C.3       1 UNK         0.0864 
      6 C6        -81.1701   28.6883  -73.4934 C.3       11 UNK        -0.0881 
      7 S7        -81.2860   30.4373  -72.9728 S.3       11 UNK        -0.2682 
      8 C8        -80.7648   30.3782  -71.2254 C.3       11 UNK         0.0289 
      9 C9        -79.2761   30.0993  -71.0859 C.ar      11 UNK        -0.0687 
     10 C10       -78.8224   28.8028  -70.8366 C.ar      11 UNK        -0.0823 
     11 C11       -77.4550   28.5278  -70.7791 C.ar      11 UNK        -0.0830 
     12 C12       -76.5395   29.5779  -70.8955 C.ar      11 UNK        -0.1021 
     13 C13       -76.9758   30.8907  -71.1265 C.ar      11 UNK        -0.0753 
     14 C14       -78.3495   31.1362  -71.2229 C.ar      11 UNK        -0.0933 
     15 C15       -76.0229   32.0795  -71.2892 C.3       11 UNK         0.0166 
     16 S16       -74.2392   31.6946  -71.3814 S.3       11 UNK        -0.2615 
     17 C17       -74.1332   30.8406  -72.9918 C.3       11 UNK        -0.0865 
     18 CA        -72.8866   29.9266  -73.1003 C.3       10 UNK         0.0862 
     19 C         -72.9584   28.6882  -72.1720 C.2       10 UNK         0.5551 
     20 N         -72.1404   28.6364  -71.1302 N.am      10 UNK        -0.7319 
     21 O         -73.7673   27.7871  -72.3742 O.2       10 UNK        -0.5018 
     22 N         -72.7007   29.4721  -74.4780 N.am      10 UNK        -0.4509 
     23 C         -71.8372   29.9852  -75.3603 C.2       10 UNK         0.4899 
     24 O         -71.1453   30.9821  -75.1457 O.2       10 UNK        -0.4839 
     25 CA        -71.7281   29.2415  -76.7058 C.3       9 UNK         0.0222 
     26 CB        -70.5211   29.6894  -77.5568 C.3       9 UNK        -0.1966 
     27 N         -71.7421   27.7845  -76.5336 N.am      9 UNK        -0.4218 
     28 C         -70.8692   27.0282  -75.8489 C.2       9 UNK         0.5020 
     29 O         -69.8420   27.4626  -75.3258 O.2       9 UNK        -0.5274 
     30 CA        -71.2037   25.5322  -75.6888 C.3       8 UNK         0.0270 
     31 CB        -71.6661   25.2468  -74.2501 C.3       8 UNK        -0.1976 
     32 N         -72.2257   25.0508  -76.6235 N.am      8 UNK        -0.4313 
     33 C         -72.0333   24.8781  -77.9387 C.2       8 UNK         0.5041 
     34 O         -70.9468   25.0320  -78.4977 O.2       8 UNK        -0.5577 
     35 CA        -73.2659   24.5040  -78.7786 C.3       7 UNK         0.0284 
     36 CB        -73.5204   22.9893  -78.7213 C.3       7 UNK        -0.1958 
     37 N         -74.4771   25.2267  -78.3763 N.am      7 UNK        -0.4454 
     38 C         -74.6469   26.5540  -78.4704 C.2       7 UNK         0.5089 
     39 O         -73.8035   27.3213  -78.9331 O.2       7 UNK        -0.5125 
     40 CA        -75.9570   27.1334  -77.9075 C.3       6 UNK         0.0408 
     41 CB        -77.1232   26.9195  -78.8846 C.3       6 UNK        -0.1791 
     42 N         -76.2960   26.5810  -76.5942 N.am      6 UNK        -0.4762 
     43 C         -75.5559   26.7514  -75.4873 C.2       6 UNK         0.5007 
     44 O         -74.5374   27.4419  -75.4468 O.2       6 UNK        -0.5032 
     45 CA        -76.0093   25.9875  -74.2293 C.3       5 UNK         0.0783 
     46 C46       -77.0858   26.7963  -73.4680 C.3       11 UNK        -0.0857 
     47 S47       -77.6376   25.9864  -71.9256 S.3       11 UNK        -0.2512 
     48 C48       -76.9634   27.0916  -70.6343 C.3       11 UNK         0.0225 
     49 N         -76.4501   24.6308  -74.5686 N.am      5 UNK        -0.4615 
     50 C         -75.6414   23.6634  -75.0225 C.2       4 UNK         0.5053 
     51 O         -74.4301   23.8034  -75.1863 O.2       4 UNK        -0.5105 
     52 CA        -76.3048   22.3305  -75.4056 C.3       4 UNK         0.0263 
     53 CB        -76.5658   21.4755  -74.1555 C.3       4 UNK        -0.1981 
     54 N         -77.5551   22.5182  -76.1451 N.am      4 UNK        -0.4224 
     55 C         -77.6452   23.1026  -77.3491 C.2       3 UNK         0.4895 
     56 O         -76.6737   23.4868  -77.9968 O.2       3 UNK        -0.5091 
     57 CA        -79.0566   23.3407  -77.9102 C.3       3 UNK         0.0250 
     58 CB        -79.4983   22.1510  -78.7769 C.3       3 UNK        -0.1996 
     59 N         -80.0627   23.5957  -76.8748 N.am      3 UNK        -0.4254 
     60 C         -80.0463   24.6364  -76.0308 C.2       2 UNK         0.5004 
     61 O         -79.1694   25.5059  -76.0168 O.2       2 UNK        -0.5226 
     62 CA        -81.1696   24.6707  -74.9926 C.3       2 UNK         0.0269 
     63 CB        -80.8250   23.7705  -73.7911 C.3       2 UNK        -0.1926 
     64 N         -81.3676   26.0413  -74.5301 N.am      2 UNK        -0.4687 
     65 C         -82.5329   26.5346  -74.0944 C.2       1 UNK         0.5165 
     66 O         -83.5790   25.8812  -74.0907 O.2       1 UNK        -0.5079 
     67 H67       -82.4411   25.3752  -71.0627 H         1 UNK         0.0900 
     68 H68       -81.6695   26.4563  -69.9070 H         1 UNK         0.0900 
     69 H69       -81.2089   26.5133  -71.5950 H         1 UNK         0.0900 
     70 H70       -84.0970   28.7119  -72.3434 H         1 UNK         0.2959 
     71 H71       -83.1535   28.5310  -74.2764 H         1 UNK         0.1079 
     72 H72       -80.4658   28.1552  -72.8605 H         1 UNK         0.0837 
     73 H73       -80.7192   28.6977  -74.4875 H         1 UNK         0.0837 
     74 H74       -80.9993   31.3360  -70.7587 H         1 UNK         0.0685 
     75 H75       -81.3490   29.6313  -70.6879 H         1 UNK         0.0685 
     76 H76       -79.5303   27.9941  -70.7287 H         1 UNK         0.1434 
     77 H77       -75.4856   29.3552  -70.8256 H         1 UNK         0.1329 
     78 H78       -78.7023   32.1405  -71.4155 H         1 UNK         0.1335 
     79 H79       -76.1755   32.7548  -70.4463 H         1 UNK         0.0680 
     80 H80       -76.2975   32.6394  -72.1847 H         1 UNK         0.0680 
     81 H81       -74.0951   31.6096  -73.7649 H         1 UNK         0.1032 
     82 H82       -75.0434   30.2699  -73.1846 H         1 UNK         0.1032 
     83 H83       -72.0129   30.5122  -72.8054 H         1 UNK         0.0461 
     84 H84       -71.4865   29.3806  -70.9442 H         1 UNK         0.3453 
     85 H85       -72.1839   27.8406  -70.5140 H         1 UNK         0.3453 
     86 H86       -73.2412   28.6479  -74.7360 H         1 UNK         0.2984 
     87 H87       -72.6334   29.4865  -77.2631 H         1 UNK         0.0554 
     88 H88       -70.4834   29.1508  -78.5037 H         1 UNK         0.0847 
     89 H89       -69.5754   29.5260  -77.0394 H         1 UNK         0.0847 
     90 H90       -70.5825   30.7527  -77.7916 H         1 UNK         0.0847 
     91 H91       -72.5646   27.3219  -76.9000 H         1 UNK         0.3141 
     92 H92       -70.2845   24.9714  -75.8703 H         1 UNK         0.0743 
     93 H93       -72.5930   25.7717  -74.0153 H         1 UNK         0.0784 
     94 H94       -71.8350   24.1817  -74.0907 H         1 UNK         0.0784 
     95 H95       -70.9179   25.5686  -73.5245 H         1 UNK         0.0784 
     96 H96       -73.1325   24.8172  -76.2254 H         1 UNK         0.3213 
     97 H97       -73.0512   24.7733  -79.8150 H         1 UNK         0.0855 
     98 H98       -73.7796   22.6613  -77.7141 H         1 UNK         0.0814 
     99 H99       -72.6352   22.4317  -79.0299 H         1 UNK         0.0814 
    100 H100      -74.3342   22.6992  -79.3861 H         1 UNK         0.0814 
    101 H101      -75.2531   24.6593  -78.0394 H         1 UNK         0.3105 
    102 H102      -75.8183   28.2094  -77.7829 H         1 UNK         0.0547 
    103 H103      -76.9213   27.4055  -79.8399 H         1 UNK         0.0837 
    104 H104      -77.2940   25.8634  -79.0899 H         1 UNK         0.0837 
    105 H105      -78.0508   27.3400  -78.4958 H         1 UNK         0.0837 
    106 H106      -77.1407   26.0229  -76.5284 H         1 UNK         0.3020 
    107 H107      -75.1360   25.8945  -73.5801 H         1 UNK         0.1245 
    108 H108      -77.9661   26.9532  -74.0931 H         1 UNK         0.0781 
    109 H109      -76.7024   27.7922  -73.2404 H         1 UNK         0.0781 
    110 H110      -75.8737   27.0470  -70.6730 H         1 UNK         0.0836 
    111 H111      -77.2541   26.7123  -69.6539 H         1 UNK         0.0836 
    112 H112      -77.4409   24.4545  -74.4961 H         1 UNK         0.3022 
    113 H113      -75.6115   21.7888  -76.0526 H         1 UNK         0.0747 
    114 H114      -76.9604   20.4946  -74.4210 H         1 UNK         0.0793 
    115 H115      -75.6428   21.3112  -73.5975 H         1 UNK         0.0793 
    116 H116      -77.2756   21.9517  -73.4776 H         1 UNK         0.0793 
    117 H117      -78.4063   22.2215  -75.6917 H         1 UNK         0.3047 
    118 H118      -79.0095   24.2264  -78.5467 H         1 UNK         0.0822 
    119 H119      -80.4571   22.3442  -79.2583 H         1 UNK         0.0807 
    120 H120      -79.5934   21.2355  -78.1916 H         1 UNK         0.0807 
    121 H121      -78.7741   21.9569  -79.5697 H         1 UNK         0.0807 
    122 H122      -80.8162   22.9261  -76.8078 H         1 UNK         0.2946 
    123 H123      -82.0834   24.3095  -75.4712 H         1 UNK         0.1144 
    124 H124      -79.9223   24.1086  -73.2803 H         1 UNK         0.0793 
    125 H125      -80.6598   22.7383  -74.1020 H         1 UNK         0.0793 
    126 H126      -81.6344   23.7582  -73.0610 H         1 UNK         0.0793 
    127 H127      -80.5443   26.6266  -74.5880 H         1 UNK         0.2896 
@<TRIPOS>BOND
     1    1    2 1    
     2    1   67 1    
     3    1   68 1    
     4    1   69 1    
     5    2    3 2    
     6    2    4 am   BACKBONE|DICT|INTERRES
     7    4    5 1    
     8    4   70 1    
     9    5    6 1    
    10    5   65 1    
    11    5   71 1    
    12    6    7 1    
    13    6   72 1    
    14    6   73 1    
    15    7    8 1    
    16    8    9 1    
    17    8   74 1    
    18    8   75 1    
    19    9   10 ar   
    20    9   14 ar   
    21   10   11 ar   
    22   10   76 1    
    23   11   12 ar   
    24   11   48 1    
    25   12   13 ar   
    26   12   77 1    
    27   13   14 ar   
    28   13   15 1    
    29   14   78 1    
    30   15   16 1    
    31   15   79 1    
    32   15   80 1    
    33   16   17 1    
    34   17   18 1    
    35   17   81 1    
    36   17   82 1    
    37   18   19 1    
    38   18   22 1    
    39   18   83 1    
    40   19   20 am   BACKBONE|DICT|INTERRES
    41   19   21 2    
    42   20   84 1    
    43   20   85 1    
    44   22   23 am   BACKBONE|DICT|INTERRES
    45   22   86 1    
    46   23   24 2    
    47   23   25 1    
    48   25   26 1    
    49   25   27 1    
    50   25   87 1    
    51   26   88 1    
    52   26   89 1    
    53   26   90 1    
    54   27   28 am   BACKBONE|DICT|INTERRES
    55   27   91 1    
    56   28   29 2    
    57   28   30 1    
    58   30   31 1    
    59   30   32 1    
    60   30   92 1    
    61   31   93 1    
    62   31   94 1    
    63   31   95 1    
    64   32   33 am   BACKBONE|DICT|INTERRES
    65   32   96 1    
    66   33   34 2    
    67   33   35 1    
    68   35   36 1    
    69   35   37 1    
    70   35   97 1    
    71   36   98 1    
    72   36   99 1    
    73   36  100 1    
    74   37   38 am   BACKBONE|DICT|INTERRES
    75   37  101 1    
    76   38   39 2    
    77   38   40 1    
    78   40   41 1    
    79   40   42 1    
    80   40  102 1    
    81   41  103 1    
    82   41  104 1    
    83   41  105 1    
    84   42   43 am   BACKBONE|DICT|INTERRES
    85   42  106 1    
    86   43   44 2    
    87   43   45 1    
    88   45   46 1    
    89   45   49 1    
    90   45  107 1    
    91   46   47 1    
    92   46  108 1    
    93   46  109 1    
    94   47   48 1    
    95   48  110 1    
    96   48  111 1    
    97   49   50 am   BACKBONE|DICT|INTERRES
    98   49  112 1    
    99   50   51 2    
   100   50   52 1    
   101   52   53 1    
   102   52   54 1    
   103   52  113 1    
   104   53  114 1    
   105   53  115 1    
   106   53  116 1    
   107   54   55 am   BACKBONE|DICT|INTERRES
   108   54  117 1    
   109   55   56 2    
   110   55   57 1    
   111   57   58 1    
   112   57   59 1    
   113   57  118 1    
   114   58  119 1    
   115   58  120 1    
   116   58  121 1    
   117   59   60 am   BACKBONE|DICT|INTERRES
   118   59  122 1    
   119   60   61 2    
   120   60   62 1    
   121   62   63 1    
   122   62   64 1    
   123   62  123 1    
   124   63  124 1    
   125   63  125 1    
   126   63  126 1    
   127   64   65 am   BACKBONE|DICT|INTERRES
   128   64  127 1    
   129   65   66 2    
@<TRIPOS>SUBSTRUCTURE
     1 UNK         1 GROUP             0       ****    0 ROOT    
