@<TRIPOS>MOLECULE
3R135
127   129    1
SMALL
USER_CHARGES


@<TRIPOS>ATOM
      1 CA        -82.8119   26.6698  -71.3091 C.3       0 UNK        -0.1998 
      2 C         -82.8326   27.1765  -72.7431 C.2       0 UNK         0.4909 
      3 O         -83.9085   27.3522  -73.3152 O.2       0 UNK        -0.5240 
      4 N         -81.6505   27.4059  -73.3290 N.am      1 UNK        -0.4739 
      5 CA        -81.4754   27.9208  -74.6974 C.3       1 UNK         0.0864 
      6 C6        -80.2466   28.8624  -74.8080 C.3       11 UNK        -0.0881 
      7 S7        -80.4560   30.3353  -73.7432 S.3       11 UNK        -0.2682 
      8 C8        -78.7353   30.8551  -73.4109 C.3       11 UNK         0.0289 
      9 C9        -77.8852   29.8850  -72.5876 C.ar      11 UNK        -0.0687 
     10 C10       -78.4390   28.8615  -71.8075 C.ar      11 UNK        -0.0823 
     11 C11       -77.6154   27.9357  -71.1589 C.ar      11 UNK        -0.0830 
     12 C12       -76.2270   28.0896  -71.2134 C.ar      11 UNK        -0.1021 
     13 C13       -75.6598   29.1370  -71.9422 C.ar      11 UNK        -0.0753 
     14 C14       -76.4944   30.0207  -72.6335 C.ar      11 UNK        -0.0933 
     15 C15       -74.1470   29.2814  -72.0315 C.3       11 UNK         0.0166 
     16 S16       -73.5886   30.9032  -71.4208 S.3       11 UNK        -0.2615 
     17 C17       -71.7736   30.7809  -71.5707 C.3       11 UNK        -0.0865 
     18 CA        -71.2777   30.9724  -73.0381 C.3       10 UNK         0.0862 
     19 C         -69.8936   31.6869  -73.1595 C.2       10 UNK         0.5551 
     20 N         -69.1098   31.4268  -74.2003 N.am      10 UNK        -0.7319 
     21 O         -69.5363   32.5160  -72.3259 O.2       10 UNK        -0.5018 
     22 N         -71.3900   29.7349  -73.8299 N.am      10 UNK        -0.4509 
     23 C         -70.6581   28.6202  -73.6627 C.2       10 UNK         0.4899 
     24 O         -69.8292   28.4752  -72.7638 O.2       10 UNK        -0.4839 
     25 CA        -70.8664   27.4613  -74.6590 C.3       9 UNK         0.0222 
     26 CB        -71.6504   26.3212  -73.9882 C.3       9 UNK        -0.1966 
     27 N         -71.5575   27.8456  -75.8906 N.am      9 UNK        -0.4218 
     28 C         -71.1212   28.7266  -76.8030 C.2       9 UNK         0.5020 
     29 O         -70.0055   29.2479  -76.7748 O.2       9 UNK        -0.5274 
     30 CA        -72.1226   29.1366  -77.9008 C.3       8 UNK         0.0270 
     31 CB        -71.8171   28.3948  -79.2118 C.3       8 UNK        -0.1976 
     32 N         -73.5272   28.9084  -77.5370 N.am      8 UNK        -0.4313 
     33 C         -74.1768   29.4540  -76.5002 C.2       8 UNK         0.5041 
     34 O         -73.6642   30.2679  -75.7313 O.2       8 UNK        -0.5577 
     35 CA        -75.6047   28.9521  -76.2227 C.3       7 UNK         0.0284 
     36 CB        -76.6389   29.6512  -77.1245 C.3       7 UNK        -0.1958 
     37 N         -75.7467   27.4879  -76.2588 N.am      7 UNK        -0.4454 
     38 C         -75.6377   26.6415  -77.2933 C.2       7 UNK         0.5089 
     39 O         -75.3653   27.0027  -78.4387 O.2       7 UNK        -0.5125 
     40 CA        -75.8531   25.1388  -77.0247 C.3       6 UNK         0.0408 
     41 CB        -74.5255   24.3623  -77.1251 C.3       6 UNK        -0.1791 
     42 N         -76.5668   24.8208  -75.7795 N.am      6 UNK        -0.4762 
     43 C         -76.1607   24.9598  -74.5083 C.2       6 UNK         0.5007 
     44 O         -75.0707   25.4282  -74.1842 O.2       6 UNK        -0.5032 
     45 CA        -77.1780   24.5737  -73.4195 C.3       5 UNK         0.0783 
     46 C46       -78.1849   25.7316  -73.2262 C.3       11 UNK        -0.0857 
     47 S47       -79.1320   25.6272  -71.6660 S.3       11 UNK        -0.2512 
     48 C48       -78.2184   26.7043  -70.4952 C.3       11 UNK         0.0225 
     49 N         -77.8476   23.3224  -73.7784 N.am      5 UNK        -0.4615 
     50 C         -77.3426   22.0994  -73.5733 C.2       4 UNK         0.5053 
     51 O         -76.3093   21.8832  -72.9399 O.2       4 UNK        -0.5105 
     52 CA        -78.1139   20.9136  -74.1848 C.3       4 UNK         0.0263 
     53 CB        -79.1424   20.3685  -73.1808 C.3       4 UNK        -0.1981 
     54 N         -78.7953   21.2579  -75.4365 N.am      4 UNK        -0.4224 
     55 C         -78.1767   21.5299  -76.5959 C.2       3 UNK         0.4895 
     56 O         -76.9647   21.4041  -76.7695 O.2       3 UNK        -0.5091 
     57 CA        -79.0484   22.0598  -77.7540 C.3       3 UNK         0.0250 
     58 CB        -79.4036   20.9197  -78.7220 C.3       3 UNK        -0.1996 
     59 N         -80.2825   22.7397  -77.3324 N.am      3 UNK        -0.4254 
     60 C         -80.3307   23.8270  -76.5496 C.2       2 UNK         0.5004 
     61 O         -79.3229   24.3717  -76.0976 O.2       2 UNK        -0.5226 
     62 CA        -81.7280   24.3355  -76.1550 C.3       2 UNK         0.0269 
     63 CB        -82.5013   23.2592  -75.3703 C.3       2 UNK        -0.1926 
     64 N         -81.6645   25.5390  -75.3220 N.am      2 UNK        -0.4687 
     65 C         -81.4577   26.7906  -75.7558 C.2       1 UNK         0.5165 
     66 O         -81.2922   27.0740  -76.9434 O.2       1 UNK        -0.5079 
     67 H67       -83.5352   27.2181  -70.7061 H         1 UNK         0.0900 
     68 H68       -81.8322   26.7931  -70.8485 H         1 UNK         0.0900 
     69 H69       -83.0742   25.6127  -71.2797 H         1 UNK         0.0900 
     70 H70       -80.7991   27.2119  -72.8201 H         1 UNK         0.2959 
     71 H71       -82.3520   28.5218  -74.9511 H         1 UNK         0.1079 
     72 H72       -79.3294   28.3338  -74.5446 H         1 UNK         0.0837 
     73 H73       -80.1147   29.2134  -75.8332 H         1 UNK         0.0837 
     74 H74       -78.2493   31.0419  -74.3700 H         1 UNK         0.0685 
     75 H75       -78.7637   31.8116  -72.8877 H         1 UNK         0.0685 
     76 H76       -79.5100   28.7351  -71.7520 H         1 UNK         0.1434 
     77 H77       -75.5857   27.3736  -70.7177 H         1 UNK         0.1329 
     78 H78       -76.0519   30.8143  -73.2209 H         1 UNK         0.1335 
     79 H79       -73.6428   28.4930  -71.4704 H         1 UNK         0.0680 
     80 H80       -73.8582   29.1601  -73.0748 H         1 UNK         0.0680 
     81 H81       -71.4275   29.8389  -71.1440 H         1 UNK         0.1032 
     82 H82       -71.3744   31.5545  -70.9133 H         1 UNK         0.1032 
     83 H83       -71.9567   31.6756  -73.5220 H         1 UNK         0.0461 
     84 H84       -68.2235   31.8992  -74.2827 H         1 UNK         0.3453 
     85 H85       -69.3959   30.7594  -74.9024 H         1 UNK         0.3453 
     86 H86       -72.0588   29.7794  -74.5926 H         1 UNK         0.2984 
     87 H87       -69.8791   27.0866  -74.9363 H         1 UNK         0.0554 
     88 H88       -71.7603   25.4639  -74.6526 H         1 UNK         0.0847 
     89 H89       -72.6486   26.6412  -73.6858 H         1 UNK         0.0847 
     90 H90       -71.1384   25.9689  -73.0916 H         1 UNK         0.0847 
     91 H91       -72.4897   27.4796  -76.0119 H         1 UNK         0.3141 
     92 H92       -71.9966   30.2078  -78.0705 H         1 UNK         0.0743 
     93 H93       -71.9571   27.3179  -79.1080 H         1 UNK         0.0784 
     94 H94       -72.4598   28.7399  -80.0220 H         1 UNK         0.0784 
     95 H95       -70.7854   28.5620  -79.5249 H         1 UNK         0.0784 
     96 H96       -74.0507   28.2375  -78.0977 H         1 UNK         0.3213 
     97 H97       -75.8330   29.2352  -75.1957 H         1 UNK         0.0855 
     98 H98       -76.5840   30.7345  -77.0089 H         1 UNK         0.0814 
     99 H99       -77.6544   29.3497  -76.8676 H         1 UNK         0.0814 
    100 H100      -76.4804   29.4303  -78.1803 H         1 UNK         0.0814 
    101 H101      -75.8668   27.0481  -75.3550 H         1 UNK         0.3105 
    102 H102      -76.5023   24.7803  -77.8249 H         1 UNK         0.0547 
    103 H103      -74.0667   24.5010  -78.1049 H         1 UNK         0.0837 
    104 H104      -73.7999   24.6902  -76.3805 H         1 UNK         0.0837 
    105 H105      -74.6842   23.2921  -76.9914 H         1 UNK         0.0837 
    106 H106      -77.5339   24.5276  -75.9175 H         1 UNK         0.3020 
    107 H107      -76.6198   24.4348  -72.4905 H         1 UNK         0.1245 
    108 H108      -78.9112   25.7456  -74.0374 H         1 UNK         0.0781 
    109 H109      -77.6838   26.6936  -73.3094 H         1 UNK         0.0781 
    110 H110      -77.4404   26.1074  -70.0168 H         1 UNK         0.0836 
    111 H111      -78.8940   27.0176  -69.6983 H         1 UNK         0.0836 
    112 H112      -78.6723   23.4196  -74.3562 H         1 UNK         0.3022 
    113 H113      -77.3906   20.1234  -74.3982 H         1 UNK         0.0747 
    114 H114      -79.6474   19.4841  -73.5697 H         1 UNK         0.0793 
    115 H115      -78.6586   20.0787  -72.2468 H         1 UNK         0.0793 
    116 H116      -79.9031   21.1112  -72.9362 H         1 UNK         0.0793 
    117 H117      -79.7985   21.3593  -75.3972 H         1 UNK         0.3047 
    118 H118      -78.4444   22.7912  -78.2955 H         1 UNK         0.0822 
    119 H119      -79.9275   21.2936  -79.6020 H         1 UNK         0.0807 
    120 H120      -80.0356   20.1682  -78.2471 H         1 UNK         0.0807 
    121 H121      -78.5044   20.4128  -79.0754 H         1 UNK         0.0807 
    122 H122      -81.1494   22.3403  -77.6633 H         1 UNK         0.2946 
    123 H123      -82.2714   24.5710  -77.0730 H         1 UNK         0.1144 
    124 H124      -82.6638   22.3620  -75.9685 H         1 UNK         0.0793 
    125 H125      -83.4862   23.6204  -75.0728 H         1 UNK         0.0793 
    126 H126      -81.9711   22.9585  -74.4654 H         1 UNK         0.0793 
    127 H127      -81.7714   25.4062  -74.3276 H         1 UNK         0.2896 
@<TRIPOS>BOND
     1    1    2 1    
     2    1   67 1    
     3    1   68 1    
     4    1   69 1    
     5    2    3 2    
     6    2    4 am   BACKBONE|DICT|INTERRES
     7    4    5 1    
     8    4   70 1    
     9    5    6 1    
    10    5   65 1    
    11    5   71 1    
    12    6    7 1    
    13    6   72 1    
    14    6   73 1    
    15    7    8 1    
    16    8    9 1    
    17    8   74 1    
    18    8   75 1    
    19    9   10 ar   
    20    9   14 ar   
    21   10   11 ar   
    22   10   76 1    
    23   11   12 ar   
    24   11   48 1    
    25   12   13 ar   
    26   12   77 1    
    27   13   14 ar   
    28   13   15 1    
    29   14   78 1    
    30   15   16 1    
    31   15   79 1    
    32   15   80 1    
    33   16   17 1    
    34   17   18 1    
    35   17   81 1    
    36   17   82 1    
    37   18   19 1    
    38   18   22 1    
    39   18   83 1    
    40   19   20 am   BACKBONE|DICT|INTERRES
    41   19   21 2    
    42   20   84 1    
    43   20   85 1    
    44   22   23 am   BACKBONE|DICT|INTERRES
    45   22   86 1    
    46   23   24 2    
    47   23   25 1    
    48   25   26 1    
    49   25   27 1    
    50   25   87 1    
    51   26   88 1    
    52   26   89 1    
    53   26   90 1    
    54   27   28 am   BACKBONE|DICT|INTERRES
    55   27   91 1    
    56   28   29 2    
    57   28   30 1    
    58   30   31 1    
    59   30   32 1    
    60   30   92 1    
    61   31   93 1    
    62   31   94 1    
    63   31   95 1    
    64   32   33 am   BACKBONE|DICT|INTERRES
    65   32   96 1    
    66   33   34 2    
    67   33   35 1    
    68   35   36 1    
    69   35   37 1    
    70   35   97 1    
    71   36   98 1    
    72   36   99 1    
    73   36  100 1    
    74   37   38 am   BACKBONE|DICT|INTERRES
    75   37  101 1    
    76   38   39 2    
    77   38   40 1    
    78   40   41 1    
    79   40   42 1    
    80   40  102 1    
    81   41  103 1    
    82   41  104 1    
    83   41  105 1    
    84   42   43 am   BACKBONE|DICT|INTERRES
    85   42  106 1    
    86   43   44 2    
    87   43   45 1    
    88   45   46 1    
    89   45   49 1    
    90   45  107 1    
    91   46   47 1    
    92   46  108 1    
    93   46  109 1    
    94   47   48 1    
    95   48  110 1    
    96   48  111 1    
    97   49   50 am   BACKBONE|DICT|INTERRES
    98   49  112 1    
    99   50   51 2    
   100   50   52 1    
   101   52   53 1    
   102   52   54 1    
   103   52  113 1    
   104   53  114 1    
   105   53  115 1    
   106   53  116 1    
   107   54   55 am   BACKBONE|DICT|INTERRES
   108   54  117 1    
   109   55   56 2    
   110   55   57 1    
   111   57   58 1    
   112   57   59 1    
   113   57  118 1    
   114   58  119 1    
   115   58  120 1    
   116   58  121 1    
   117   59   60 am   BACKBONE|DICT|INTERRES
   118   59  122 1    
   119   60   61 2    
   120   60   62 1    
   121   62   63 1    
   122   62   64 1    
   123   62  123 1    
   124   63  124 1    
   125   63  125 1    
   126   63  126 1    
   127   64   65 am   BACKBONE|DICT|INTERRES
   128   64  127 1    
   129   65   66 2    
@<TRIPOS>SUBSTRUCTURE
     1 UNK         1 GROUP             0       ****    0 ROOT    
