@<TRIPOS>MOLECULE
3R135
127   129    1
SMALL
USER_CHARGES


@<TRIPOS>ATOM
      1 CA        -80.1838   30.2802  -77.3708 C.3       0 UNK        -0.1998 
      2 C         -81.1865   29.9313  -76.2720 C.2       0 UNK         0.4909 
      3 O         -82.2826   30.4886  -76.2590 O.2       0 UNK        -0.5240 
      4 N         -80.8646   29.0384  -75.3254 N.am      1 UNK        -0.4739 
      5 CA        -79.6362   28.2378  -75.2459 C.3       1 UNK         0.0864 
      6 C6        -79.4200   27.6262  -73.8398 C.3       11 UNK        -0.0881 
      7 S7        -79.4848   28.8821  -72.5168 S.3       11 UNK        -0.2682 
      8 C8        -77.7569   29.4705  -72.4870 C.3       11 UNK         0.0289 
      9 C9        -76.7376   28.5319  -71.8395 C.ar      11 UNK        -0.0687 
     10 C10       -77.1004   27.4183  -71.0704 C.ar      11 UNK        -0.0823 
     11 C11       -76.1247   26.6014  -70.4913 C.ar      11 UNK        -0.0830 
     12 C12       -74.7726   26.9137  -70.6590 C.ar      11 UNK        -0.1021 
     13 C13       -74.3968   28.0237  -71.4186 C.ar      11 UNK        -0.0753 
     14 C14       -75.3813   28.8199  -72.0079 C.ar      11 UNK        -0.0933 
     15 C15       -72.9317   28.3621  -71.6287 C.3       11 UNK         0.0166 
     16 S16       -72.3930   29.6825  -70.5012 S.3       11 UNK        -0.2615 
     17 C17       -70.9862   30.3786  -71.4357 C.3       11 UNK        -0.0865 
     18 CA        -71.2568   31.8232  -71.9537 C.3       10 UNK         0.0862 
     19 C         -69.9946   32.4653  -72.6093 C.2       10 UNK         0.5551 
     20 N         -70.1354   33.3224  -73.6133 N.am      10 UNK        -0.7319 
     21 O         -68.8706   32.2101  -72.1830 O.2       10 UNK        -0.5018 
     22 N         -72.4985   31.9504  -72.7446 N.am      10 UNK        -0.4509 
     23 C         -72.7609   31.3523  -73.9130 C.2       10 UNK         0.4899 
     24 O         -71.9900   30.5828  -74.4925 O.2       10 UNK        -0.4839 
     25 CA        -74.1145   31.6887  -74.5509 C.3       9 UNK         0.0222 
     26 CB        -74.0844   33.0905  -75.1920 C.3       9 UNK        -0.1966 
     27 N         -74.4126   30.6780  -75.5614 N.am      9 UNK        -0.4218 
     28 C         -75.6036   30.4438  -76.1239 C.2       9 UNK         0.5020 
     29 O         -76.6395   31.0357  -75.8204 O.2       9 UNK        -0.5274 
     30 CA        -75.6485   29.3703  -77.2233 C.3       8 UNK         0.0270 
     31 CB        -75.2941   29.9810  -78.5886 C.3       8 UNK        -0.1976 
     32 N         -74.7613   28.2359  -76.9470 N.am      8 UNK        -0.4313 
     33 C         -75.0617   27.2469  -76.0977 C.2       8 UNK         0.5041 
     34 O         -76.1253   27.1795  -75.4786 O.2       8 UNK        -0.5577 
     35 CA        -74.0160   26.1438  -75.9170 C.3       7 UNK         0.0284 
     36 CB        -73.2348   26.3415  -74.6071 C.3       7 UNK        -0.1958 
     37 N         -74.7002   24.8538  -75.9106 N.am      7 UNK        -0.4454 
     38 C         -74.1329   23.6737  -76.1949 C.2       7 UNK         0.5089 
     39 O         -72.9394   23.5425  -76.4727 O.2       7 UNK        -0.5125 
     40 CA        -75.0589   22.4401  -76.1918 C.3       6 UNK         0.0408 
     41 CB        -74.3019   21.0995  -76.0778 C.3       6 UNK        -0.1791 
     42 N         -76.1373   22.5517  -75.2038 N.am      6 UNK        -0.4762 
     43 C         -76.0388   22.5307  -73.8659 C.2       6 UNK         0.5007 
     44 O         -74.9949   22.2584  -73.2730 O.2       6 UNK        -0.5032 
     45 CA        -77.3081   22.8665  -73.0471 C.3       5 UNK         0.0783 
     46 C46       -77.1320   24.1439  -72.1845 C.3       11 UNK        -0.0857 
     47 S47       -76.2214   23.8344  -70.6317 S.3       11 UNK        -0.2512 
     48 C48       -76.5369   25.3681  -69.7017 C.3       11 UNK         0.0225 
     49 N         -78.5133   22.9613  -73.8849 N.am      5 UNK        -0.4615 
     50 C         -79.7105   22.4638  -73.5428 C.2       4 UNK         0.5053 
     51 O         -79.9232   21.8676  -72.4865 O.2       4 UNK        -0.5105 
     52 CA        -80.8821   22.6583  -74.5274 C.3       4 UNK         0.0263 
     53 CB        -81.7285   23.8747  -74.1202 C.3       4 UNK        -0.1981 
     54 N         -80.4659   22.8138  -75.9223 N.am      4 UNK        -0.4224 
     55 C         -79.8852   21.8577  -76.6609 C.2       3 UNK         0.4895 
     56 O         -79.7351   20.6981  -76.2751 O.2       3 UNK        -0.5091 
     57 CA        -79.3548   22.2513  -78.0553 C.3       3 UNK         0.0250 
     58 CB        -80.2717   21.6863  -79.1528 C.3       3 UNK        -0.1996 
     59 N         -79.1584   23.6889  -78.2959 N.am      3 UNK        -0.4254 
     60 C         -78.4211   24.5280  -77.5553 C.2       2 UNK         0.5004 
     61 O         -77.8829   24.2070  -76.4949 O.2       2 UNK        -0.5226 
     62 CA        -78.2513   25.9720  -78.0503 C.3       2 UNK         0.0269 
     63 CB        -79.0745   26.3341  -79.3083 C.3       2 UNK        -0.1926 
     64 N         -78.4976   26.9192  -76.9605 N.am      2 UNK        -0.4687 
     65 C         -79.6544   27.1391  -76.3257 C.2       1 UNK         0.5165 
     66 O         -80.7018   26.5328  -76.5657 O.2       1 UNK        -0.5079 
     67 H67       -79.2211   30.5723  -76.9527 H         1 UNK         0.0900 
     68 H68       -80.5478   31.1200  -77.9624 H         1 UNK         0.0900 
     69 H69       -80.0375   29.4402  -78.0488 H         1 UNK         0.0900 
     70 H70       -81.5476   28.8311  -74.6115 H         1 UNK         0.2959 
     71 H71       -78.7879   28.8965  -75.4422 H         1 UNK         0.1079 
     72 H72       -80.1868   26.8815  -73.6219 H         1 UNK         0.0837 
     73 H73       -78.4631   27.1013  -73.7911 H         1 UNK         0.0837 
     74 H74       -77.4469   29.6928  -73.5090 H         1 UNK         0.0685 
     75 H75       -77.7344   30.4180  -71.9474 H         1 UNK         0.0685 
     76 H76       -78.1414   27.1709  -70.9224 H         1 UNK         0.1434 
     77 H77       -74.0162   26.2833  -70.2117 H         1 UNK         0.1329 
     78 H78       -75.0868   29.6755  -72.5967 H         1 UNK         0.1335 
     79 H79       -72.3035   27.4819  -71.4836 H         1 UNK         0.0680 
     80 H80       -72.7883   28.6755  -72.6621 H         1 UNK         0.0680 
     81 H81       -70.7129   29.7195  -72.2612 H         1 UNK         0.1032 
     82 H82       -70.1263   30.3756  -70.7633 H         1 UNK         0.1032 
     83 H83       -71.4326   32.4386  -71.0707 H         1 UNK         0.0461 
     84 H84       -69.3158   33.7413  -74.0240 H         1 UNK         0.3453 
     85 H85       -71.0507   33.5502  -73.9651 H         1 UNK         0.3453 
     86 H86       -73.1909   32.5737  -72.3546 H         1 UNK         0.2984 
     87 H87       -74.8847   31.6586  -73.7781 H         1 UNK         0.0554 
     88 H88       -75.0483   33.3508  -75.6297 H         1 UNK         0.0847 
     89 H89       -73.3328   33.1560  -75.9798 H         1 UNK         0.0847 
     90 H90       -73.8536   33.8596  -74.4541 H         1 UNK         0.0847 
     91 H91       -73.6102   30.1210  -75.8284 H         1 UNK         0.3141 
     92 H92       -76.6763   29.0092  -77.2848 H         1 UNK         0.0743 
     93 H93       -75.9552   30.8163  -78.8245 H         1 UNK         0.0784 
     94 H94       -74.2712   30.3589  -78.6129 H         1 UNK         0.0784 
     95 H95       -75.4019   29.2495  -79.3899 H         1 UNK         0.0784 
     96 H96       -73.8751   28.2179  -77.4325 H         1 UNK         0.3213 
     97 H97       -73.3212   26.1716  -76.7593 H         1 UNK         0.0855 
     98 H98       -72.7224   27.3039  -74.6027 H         1 UNK         0.0814 
     99 H99       -72.4760   25.5708  -74.4726 H         1 UNK         0.0814 
    100 H100      -73.8974   26.3121  -73.7410 H         1 UNK         0.0814 
    101 H101      -75.6967   24.8991  -75.7273 H         1 UNK         0.3105 
    102 H102      -75.5553   22.4444  -77.1633 H         1 UNK         0.0547 
    103 H103      -73.6357   20.9569  -76.9293 H         1 UNK         0.0837 
    104 H104      -73.6866   21.0522  -75.1792 H         1 UNK         0.0837 
    105 H105      -74.9898   20.2544  -76.0607 H         1 UNK         0.0837 
    106 H106      -77.0150   22.8653  -75.6064 H         1 UNK         0.3020 
    107 H107      -77.4315   22.0146  -72.3741 H         1 UNK         0.1245 
    108 H108      -78.1086   24.5427  -71.9044 H         1 UNK         0.0781 
    109 H109      -76.6377   24.9363  -72.7511 H         1 UNK         0.0781 
    110 H110      -75.9840   25.3350  -68.7618 H         1 UNK         0.0836 
    111 H111      -77.5935   25.4125  -69.4327 H         1 UNK         0.0836 
    112 H112      -78.4251   23.4657  -74.7614 H         1 UNK         0.3022 
    113 H113      -81.5112   21.7679  -74.4631 H         1 UNK         0.0747 
    114 H114      -82.6199   23.9636  -74.7414 H         1 UNK         0.0793 
    115 H115      -82.0628   23.7921  -73.0850 H         1 UNK         0.0793 
    116 H116      -81.1653   24.8034  -74.2098 H         1 UNK         0.0793 
    117 H117      -80.5436   23.7400  -76.3199 H         1 UNK         0.3047 
    118 H118      -78.3753   21.7792  -78.1559 H         1 UNK         0.0822 
    119 H119      -79.8477   21.8408  -80.1453 H         1 UNK         0.0807 
    120 H120      -81.2584   22.1509  -79.1313 H         1 UNK         0.0807 
    121 H121      -80.4153   20.6116  -79.0304 H         1 UNK         0.0807 
    122 H122      -79.5864   24.0586  -79.1325 H         1 UNK         0.2946 
    123 H123      -77.1960   26.0717  -78.3089 H         1 UNK         0.1144 
    124 H124      -78.7854   25.7191  -80.1615 H         1 UNK         0.0793 
    125 H125      -78.9046   27.3712  -79.5978 H         1 UNK         0.0793 
    126 H126      -80.1470   26.2087  -79.1553 H         1 UNK         0.0793 
    127 H127      -77.6548   27.3048  -76.5390 H         1 UNK         0.2896 
@<TRIPOS>BOND
     1    1    2 1    
     2    1   67 1    
     3    1   68 1    
     4    1   69 1    
     5    2    3 2    
     6    2    4 am   BACKBONE|DICT|INTERRES
     7    4    5 1    
     8    4   70 1    
     9    5    6 1    
    10    5   65 1    
    11    5   71 1    
    12    6    7 1    
    13    6   72 1    
    14    6   73 1    
    15    7    8 1    
    16    8    9 1    
    17    8   74 1    
    18    8   75 1    
    19    9   10 ar   
    20    9   14 ar   
    21   10   11 ar   
    22   10   76 1    
    23   11   12 ar   
    24   11   48 1    
    25   12   13 ar   
    26   12   77 1    
    27   13   14 ar   
    28   13   15 1    
    29   14   78 1    
    30   15   16 1    
    31   15   79 1    
    32   15   80 1    
    33   16   17 1    
    34   17   18 1    
    35   17   81 1    
    36   17   82 1    
    37   18   19 1    
    38   18   22 1    
    39   18   83 1    
    40   19   20 am   BACKBONE|DICT|INTERRES
    41   19   21 2    
    42   20   84 1    
    43   20   85 1    
    44   22   23 am   BACKBONE|DICT|INTERRES
    45   22   86 1    
    46   23   24 2    
    47   23   25 1    
    48   25   26 1    
    49   25   27 1    
    50   25   87 1    
    51   26   88 1    
    52   26   89 1    
    53   26   90 1    
    54   27   28 am   BACKBONE|DICT|INTERRES
    55   27   91 1    
    56   28   29 2    
    57   28   30 1    
    58   30   31 1    
    59   30   32 1    
    60   30   92 1    
    61   31   93 1    
    62   31   94 1    
    63   31   95 1    
    64   32   33 am   BACKBONE|DICT|INTERRES
    65   32   96 1    
    66   33   34 2    
    67   33   35 1    
    68   35   36 1    
    69   35   37 1    
    70   35   97 1    
    71   36   98 1    
    72   36   99 1    
    73   36  100 1    
    74   37   38 am   BACKBONE|DICT|INTERRES
    75   37  101 1    
    76   38   39 2    
    77   38   40 1    
    78   40   41 1    
    79   40   42 1    
    80   40  102 1    
    81   41  103 1    
    82   41  104 1    
    83   41  105 1    
    84   42   43 am   BACKBONE|DICT|INTERRES
    85   42  106 1    
    86   43   44 2    
    87   43   45 1    
    88   45   46 1    
    89   45   49 1    
    90   45  107 1    
    91   46   47 1    
    92   46  108 1    
    93   46  109 1    
    94   47   48 1    
    95   48  110 1    
    96   48  111 1    
    97   49   50 am   BACKBONE|DICT|INTERRES
    98   49  112 1    
    99   50   51 2    
   100   50   52 1    
   101   52   53 1    
   102   52   54 1    
   103   52  113 1    
   104   53  114 1    
   105   53  115 1    
   106   53  116 1    
   107   54   55 am   BACKBONE|DICT|INTERRES
   108   54  117 1    
   109   55   56 2    
   110   55   57 1    
   111   57   58 1    
   112   57   59 1    
   113   57  118 1    
   114   58  119 1    
   115   58  120 1    
   116   58  121 1    
   117   59   60 am   BACKBONE|DICT|INTERRES
   118   59  122 1    
   119   60   61 2    
   120   60   62 1    
   121   62   63 1    
   122   62   64 1    
   123   62  123 1    
   124   63  124 1    
   125   63  125 1    
   126   63  126 1    
   127   64   65 am   BACKBONE|DICT|INTERRES
   128   64  127 1    
   129   65   66 2    
@<TRIPOS>SUBSTRUCTURE
     1 UNK         1 GROUP             0       ****    0 ROOT    
