@<TRIPOS>MOLECULE
3R135
127   129    1
SMALL
USER_CHARGES


@<TRIPOS>ATOM
      1 CA        -81.3080   25.6997  -70.5110 C.3       0 UNK        -0.1998 
      2 C         -82.3487   26.1077  -71.5422 C.2       0 UNK         0.4909 
      3 O         -83.4062   25.4815  -71.6179 O.2       0 UNK        -0.5240 
      4 N         -82.0651   27.1508  -72.3361 N.am      1 UNK        -0.4739 
      5 CA        -82.9374   27.6249  -73.4196 C.3       1 UNK         0.0864 
      6 C6        -82.6531   29.0988  -73.8110 C.3       11 UNK        -0.0881 
      7 S7        -80.9438   29.4125  -74.3776 S.3       11 UNK        -0.2682 
      8 C8        -80.2193   30.3194  -72.9746 C.3       11 UNK         0.0289 
      9 C9        -78.8365   29.7762  -72.6591 C.ar      11 UNK        -0.0687 
     10 C10       -78.6918   28.7258  -71.7517 C.ar      11 UNK        -0.0823 
     11 C11       -77.4358   28.1721  -71.4962 C.ar      11 UNK        -0.0830 
     12 C12       -76.3090   28.6976  -72.1353 C.ar      11 UNK        -0.1021 
     13 C13       -76.4389   29.7660  -73.0293 C.ar      11 UNK        -0.0753 
     14 C14       -77.7051   30.2999  -73.2893 C.ar      11 UNK        -0.0933 
     15 C15       -75.2236   30.3198  -73.7540 C.3       11 UNK         0.0166 
     16 S16       -74.3657   31.5797  -72.7596 S.3       11 UNK        -0.2615 
     17 C17       -73.0063   30.6070  -72.0211 C.3       11 UNK        -0.0865 
     18 CA        -71.6811   30.7644  -72.8153 C.3       10 UNK         0.0862 
     19 C         -70.4834   30.0916  -72.0812 C.2       10 UNK         0.5551 
     20 N         -69.7093   29.2156  -72.7128 N.am      10 UNK        -0.7319 
     21 O         -70.2438   30.3797  -70.9112 O.2       10 UNK        -0.5018 
     22 N         -71.8436   30.3265  -74.2090 N.am      10 UNK        -0.4509 
     23 C         -71.2128   30.8429  -75.2688 C.2       10 UNK         0.4899 
     24 O         -70.4436   31.8036  -75.2117 O.2       10 UNK        -0.4839 
     25 CA        -71.4970   30.1523  -76.6194 C.3       9 UNK         0.0222 
     26 CB        -70.4053   30.4330  -77.6737 C.3       9 UNK        -0.1966 
     27 N         -71.7379   28.7063  -76.4951 N.am      9 UNK        -0.4218 
     28 C         -70.9004   27.7876  -75.9827 C.2       9 UNK         0.5020 
     29 O         -69.7947   28.0618  -75.5136 O.2       9 UNK        -0.5274 
     30 CA        -71.3771   26.3234  -75.9337 C.3       8 UNK         0.0270 
     31 CB        -71.4599   25.8337  -74.4771 C.3       8 UNK        -0.1976 
     32 N         -72.6694   26.1069  -76.5927 N.am      8 UNK        -0.4313 
     33 C         -72.8325   26.0008  -77.9211 C.2       8 UNK         0.5041 
     34 O         -71.8978   26.0502  -78.7214 O.2       8 UNK        -0.5577 
     35 CA        -74.2628   25.8185  -78.4659 C.3       7 UNK         0.0284 
     36 CB        -74.4514   24.3933  -79.0091 C.3       7 UNK        -0.1958 
     37 N         -75.3144   26.1060  -77.4863 N.am      7 UNK        -0.4454 
     38 C         -75.6298   27.3328  -77.0452 C.2       7 UNK         0.5089 
     39 O         -75.0673   28.3595  -77.4270 O.2       7 UNK        -0.5125 
     40 CA        -76.7119   27.4238  -75.9534 C.3       6 UNK         0.0408 
     41 CB        -78.0908   27.6855  -76.5747 C.3       6 UNK        -0.1791 
     42 N         -76.7663   26.2498  -75.0695 N.am      6 UNK        -0.4762 
     43 C         -75.7494   25.8824  -74.2697 C.2       6 UNK         0.5007 
     44 O         -74.6799   26.4927  -74.2374 O.2       6 UNK        -0.5032 
     45 CA        -75.8775   24.6061  -73.4195 C.3       5 UNK         0.0783 
     46 C46       -76.0228   24.8814  -71.9020 C.3       11 UNK        -0.0857 
     47 S47       -77.6825   25.4243  -71.3692 S.3       11 UNK        -0.2512 
     48 C48       -77.3168   27.0018  -70.5345 C.3       11 UNK         0.0225 
     49 N         -76.8636   23.6612  -73.9502 N.am      5 UNK        -0.4615 
     50 C         -76.6799   22.3338  -73.9724 C.2       4 UNK         0.5053 
     51 O         -75.7276   21.7667  -73.4350 O.2       4 UNK        -0.5105 
     52 CA        -77.7020   21.4839  -74.7533 C.3       4 UNK         0.0263 
     53 CB        -78.7775   20.9361  -73.8011 C.3       4 UNK        -0.1981 
     54 N         -78.3570   22.1970  -75.8533 N.am      4 UNK        -0.4224 
     55 C         -77.7426   22.8168  -76.8721 C.2       3 UNK         0.4895 
     56 O         -76.5302   22.7670  -77.0718 O.2       3 UNK        -0.5091 
     57 CA        -78.6094   23.6871  -77.8023 C.3       3 UNK         0.0250 
     58 CB        -78.7576   23.0157  -79.1772 C.3       3 UNK        -0.1996 
     59 N         -79.9435   24.0267  -77.2878 N.am      3 UNK        -0.4254 
     60 C         -80.2200   24.6656  -76.1416 C.2       2 UNK         0.5004 
     61 O         -79.3650   25.0164  -75.3201 O.2       2 UNK        -0.5226 
     62 CA        -81.7075   24.8835  -75.8499 C.3       2 UNK         0.0269 
     63 CB        -82.3738   23.5697  -75.3988 C.3       2 UNK        -0.1926 
     64 N         -81.8623   25.8878  -74.8041 N.am      2 UNK        -0.4687 
     65 C         -82.9301   26.6808  -74.6433 C.2       1 UNK         0.5165 
     66 O         -83.9009   26.6736  -75.4025 O.2       1 UNK        -0.5079 
     67 H67       -80.5402   26.4591  -70.3789 H         1 UNK         0.0900 
     68 H68       -80.8221   24.7732  -70.8164 H         1 UNK         0.0900 
     69 H69       -81.7815   25.5328  -69.5439 H         1 UNK         0.0900 
     70 H70       -81.1766   27.6221  -72.2610 H         1 UNK         0.2959 
     71 H71       -83.9622   27.5984  -73.0410 H         1 UNK         0.1079 
     72 H72       -82.8885   29.7514  -72.9695 H         1 UNK         0.0837 
     73 H73       -83.3324   29.4122  -74.6063 H         1 UNK         0.0837 
     74 H74       -80.8524   30.2414  -72.0899 H         1 UNK         0.0685 
     75 H75       -80.1660   31.3809  -73.2212 H         1 UNK         0.0685 
     76 H76       -79.5616   28.3271  -71.2533 H         1 UNK         0.1434 
     77 H77       -75.3355   28.2658  -71.9505 H         1 UNK         0.1329 
     78 H78       -77.8133   31.1115  -73.9957 H         1 UNK         0.1335 
     79 H79       -75.5281   30.7732  -74.6987 H         1 UNK         0.0680 
     80 H80       -74.5478   29.5065  -74.0208 H         1 UNK         0.0680 
     81 H81       -72.8784   30.9589  -70.9956 H         1 UNK         0.1032 
     82 H82       -73.2909   29.5569  -71.9421 H         1 UNK         0.1032 
     83 H83       -71.4437   31.8300  -72.8257 H         1 UNK         0.0461 
     84 H84       -69.8628   28.9789  -73.6863 H         1 UNK         0.3453 
     85 H85       -68.9380   28.7995  -72.2162 H         1 UNK         0.3453 
     86 H86       -72.4323   29.5212  -74.3534 H         1 UNK         0.2984 
     87 H87       -72.4293   30.5830  -76.9874 H         1 UNK         0.0554 
     88 H88       -70.6358   29.9484  -78.6225 H         1 UNK         0.0847 
     89 H89       -69.4267   30.0804  -77.3462 H         1 UNK         0.0847 
     90 H90       -70.3158   31.5019  -77.8712 H         1 UNK         0.0847 
     91 H91       -72.6351   28.3840  -76.8351 H         1 UNK         0.3141 
     92 H92       -70.6229   25.7222  -76.4459 H         1 UNK         0.0743 
     93 H93       -70.4752   25.8439  -74.0078 H         1 UNK         0.0784 
     94 H94       -72.1083   26.4670  -73.8713 H         1 UNK         0.0784 
     95 H95       -71.8342   24.8115  -74.4180 H         1 UNK         0.0784 
     96 H96       -73.4845   26.0918  -75.9900 H         1 UNK         0.3213 
     97 H97       -74.3806   26.5157  -79.2984 H         1 UNK         0.0855 
     98 H98       -74.2925   23.6429  -78.2339 H         1 UNK         0.0814 
     99 H99       -73.7416   24.1847  -79.8107 H         1 UNK         0.0814 
    100 H100      -75.4515   24.2492  -79.4183 H         1 UNK         0.0814 
    101 H101      -75.8017   25.3119  -77.0950 H         1 UNK         0.3105 
    102 H102      -76.4662   28.2843  -75.3328 H         1 UNK         0.0547 
    103 H103      -78.8575   27.7795  -75.8060 H         1 UNK         0.0837 
    104 H104      -78.0899   28.6154  -77.1445 H         1 UNK         0.0837 
    105 H105      -78.3907   26.8885  -77.2539 H         1 UNK         0.0837 
    106 H106      -77.6528   25.7533  -75.0434 H         1 UNK         0.3020 
    107 H107      -74.8955   24.1417  -73.5425 H         1 UNK         0.1245 
    108 H108      -75.2669   25.5981  -71.5766 H         1 UNK         0.0781 
    109 H109      -75.7993   23.9646  -71.3545 H         1 UNK         0.0781 
    110 H110      -76.3302   26.9759  -70.0698 H         1 UNK         0.0836 
    111 H111      -78.0248   27.1326  -69.7148 H         1 UNK         0.0836 
    112 H112      -77.6950   24.0499  -74.3779 H         1 UNK         0.3022 
    113 H113      -77.1607   20.6410  -75.1878 H         1 UNK         0.0747 
    114 H114      -79.4585   20.2585  -74.3165 H         1 UNK         0.0793 
    115 H115      -78.3244   20.3756  -72.9820 H         1 UNK         0.0793 
    116 H116      -79.3699   21.7382  -73.3582 H         1 UNK         0.0793 
    117 H117      -79.3572   22.3062  -75.7811 H         1 UNK         0.3047 
    118 H118      -78.0692   24.6245  -77.9431 H         1 UNK         0.0822 
    119 H119      -77.7824   22.7778  -79.6051 H         1 UNK         0.0807 
    120 H120      -79.2668   23.6686  -79.8864 H         1 UNK         0.0807 
    121 H121      -79.3204   22.0836  -79.1124 H         1 UNK         0.0807 
    122 H122      -80.7179   23.7593  -77.8791 H         1 UNK         0.2946 
    123 H123      -82.1816   25.2424  -76.7667 H         1 UNK         0.1144 
    124 H124      -82.2864   22.7946  -76.1611 H         1 UNK         0.0793 
    125 H125      -83.4379   23.7103  -75.2079 H         1 UNK         0.0793 
    126 H126      -81.9215   23.1840  -74.4839 H         1 UNK         0.0793 
    127 H127      -81.0669   25.9876  -74.1864 H         1 UNK         0.2896 
@<TRIPOS>BOND
     1    1    2 1    
     2    1   67 1    
     3    1   68 1    
     4    1   69 1    
     5    2    3 2    
     6    2    4 am   BACKBONE|DICT|INTERRES
     7    4    5 1    
     8    4   70 1    
     9    5    6 1    
    10    5   65 1    
    11    5   71 1    
    12    6    7 1    
    13    6   72 1    
    14    6   73 1    
    15    7    8 1    
    16    8    9 1    
    17    8   74 1    
    18    8   75 1    
    19    9   10 ar   
    20    9   14 ar   
    21   10   11 ar   
    22   10   76 1    
    23   11   12 ar   
    24   11   48 1    
    25   12   13 ar   
    26   12   77 1    
    27   13   14 ar   
    28   13   15 1    
    29   14   78 1    
    30   15   16 1    
    31   15   79 1    
    32   15   80 1    
    33   16   17 1    
    34   17   18 1    
    35   17   81 1    
    36   17   82 1    
    37   18   19 1    
    38   18   22 1    
    39   18   83 1    
    40   19   20 am   BACKBONE|DICT|INTERRES
    41   19   21 2    
    42   20   84 1    
    43   20   85 1    
    44   22   23 am   BACKBONE|DICT|INTERRES
    45   22   86 1    
    46   23   24 2    
    47   23   25 1    
    48   25   26 1    
    49   25   27 1    
    50   25   87 1    
    51   26   88 1    
    52   26   89 1    
    53   26   90 1    
    54   27   28 am   BACKBONE|DICT|INTERRES
    55   27   91 1    
    56   28   29 2    
    57   28   30 1    
    58   30   31 1    
    59   30   32 1    
    60   30   92 1    
    61   31   93 1    
    62   31   94 1    
    63   31   95 1    
    64   32   33 am   BACKBONE|DICT|INTERRES
    65   32   96 1    
    66   33   34 2    
    67   33   35 1    
    68   35   36 1    
    69   35   37 1    
    70   35   97 1    
    71   36   98 1    
    72   36   99 1    
    73   36  100 1    
    74   37   38 am   BACKBONE|DICT|INTERRES
    75   37  101 1    
    76   38   39 2    
    77   38   40 1    
    78   40   41 1    
    79   40   42 1    
    80   40  102 1    
    81   41  103 1    
    82   41  104 1    
    83   41  105 1    
    84   42   43 am   BACKBONE|DICT|INTERRES
    85   42  106 1    
    86   43   44 2    
    87   43   45 1    
    88   45   46 1    
    89   45   49 1    
    90   45  107 1    
    91   46   47 1    
    92   46  108 1    
    93   46  109 1    
    94   47   48 1    
    95   48  110 1    
    96   48  111 1    
    97   49   50 am   BACKBONE|DICT|INTERRES
    98   49  112 1    
    99   50   51 2    
   100   50   52 1    
   101   52   53 1    
   102   52   54 1    
   103   52  113 1    
   104   53  114 1    
   105   53  115 1    
   106   53  116 1    
   107   54   55 am   BACKBONE|DICT|INTERRES
   108   54  117 1    
   109   55   56 2    
   110   55   57 1    
   111   57   58 1    
   112   57   59 1    
   113   57  118 1    
   114   58  119 1    
   115   58  120 1    
   116   58  121 1    
   117   59   60 am   BACKBONE|DICT|INTERRES
   118   59  122 1    
   119   60   61 2    
   120   60   62 1    
   121   62   63 1    
   122   62   64 1    
   123   62  123 1    
   124   63  124 1    
   125   63  125 1    
   126   63  126 1    
   127   64   65 am   BACKBONE|DICT|INTERRES
   128   64  127 1    
   129   65   66 2    
@<TRIPOS>SUBSTRUCTURE
     1 UNK         1 GROUP             0       ****    0 ROOT    
