@<TRIPOS>MOLECULE
3R135
127   129    1
SMALL
USER_CHARGES


@<TRIPOS>ATOM
      1 CA        -81.3374   29.3613  -77.6442 C.3       0 UNK        -0.1998 
      2 C         -80.8351   28.4929  -76.5009 C.2       0 UNK         0.4909 
      3 O         -79.9851   27.6317  -76.7199 O.2       0 UNK        -0.5240 
      4 N         -81.3453   28.7244  -75.2845 N.am      1 UNK        -0.4739 
      5 CA        -80.9920   27.9974  -74.0586 C.3       1 UNK         0.0864 
      6 C6        -81.6848   28.6086  -72.8134 C.3       11 UNK        -0.0881 
      7 S7        -81.3161   30.3805  -72.5697 S.3       11 UNK        -0.2682 
      8 C8        -80.1803   30.3432  -71.1474 C.3       11 UNK         0.0289 
      9 C9        -78.7842   29.9055  -71.5605 C.ar      11 UNK        -0.0687 
     10 C10       -78.3942   28.5696  -71.4397 C.ar      11 UNK        -0.0823 
     11 C11       -77.1173   28.1702  -71.8396 C.ar      11 UNK        -0.0830 
     12 C12       -76.2259   29.1162  -72.3514 C.ar      11 UNK        -0.1021 
     13 C13       -76.5938   30.4639  -72.4614 C.ar      11 UNK        -0.0753 
     14 C14       -77.8794   30.8439  -72.0646 C.ar      11 UNK        -0.0933 
     15 C15       -75.6683   31.5462  -73.0220 C.3       11 UNK         0.0166 
     16 S16       -73.9815   31.0191  -73.4797 S.3       11 UNK        -0.2615 
     17 C17       -73.1167   30.9934  -71.8664 C.3       11 UNK        -0.0865 
     18 CA        -72.0964   29.8288  -71.7215 C.3       10 UNK         0.0862 
     19 C         -72.7781   28.5062  -71.2586 C.2       10 UNK         0.5551 
     20 N         -72.8492   27.4651  -72.0802 N.am      10 UNK        -0.7319 
     21 O         -73.2345   28.4216  -70.1216 O.2       10 UNK        -0.5018 
     22 N         -71.2538   29.7063  -72.9198 N.am      10 UNK        -0.4509 
     23 C         -70.1455   28.9659  -73.0311 C.2       10 UNK         0.4899 
     24 O         -69.5715   28.4530  -72.0695 O.2       10 UNK        -0.4839 
     25 CA        -69.5916   28.7544  -74.4582 C.3       9 UNK         0.0222 
     26 CB        -68.9228   27.3724  -74.6165 C.3       9 UNK        -0.1966 
     27 N         -70.5692   28.9704  -75.5406 N.am      9 UNK        -0.4218 
     28 C         -71.7432   28.3435  -75.7195 C.2       9 UNK         0.5020 
     29 O         -72.2024   27.4967  -74.9473 O.2       9 UNK        -0.5274 
     30 CA        -72.5298   28.7363  -76.9761 C.3       8 UNK         0.0270 
     31 CB        -72.1495   27.8268  -78.1557 C.3       8 UNK        -0.1976 
     32 N         -73.9580   28.5948  -76.7052 N.am      8 UNK        -0.4313 
     33 C         -74.8535   29.5905  -76.7325 C.2       8 UNK         0.5041 
     34 O         -74.5864   30.7345  -77.1072 O.2       8 UNK        -0.5577 
     35 CA        -76.2808   29.2589  -76.2455 C.3       7 UNK         0.0284 
     36 CB        -77.3314   30.3026  -76.6779 C.3       7 UNK        -0.1958 
     37 N         -76.7173   27.9019  -76.5884 N.am      7 UNK        -0.4454 
     38 C         -76.8087   27.3533  -77.8102 C.2       7 UNK         0.5089 
     39 O         -76.6127   27.9682  -78.8602 O.2       7 UNK        -0.5125 
     40 CA        -77.1450   25.8456  -77.8543 C.3       6 UNK         0.0408 
     41 CB        -76.6435   25.1607  -79.1422 C.3       6 UNK        -0.1791 
     42 N         -76.6832   25.1081  -76.6697 N.am      6 UNK        -0.4762 
     43 C         -75.4259   25.0310  -76.2020 C.2       6 UNK         0.5007 
     44 O         -74.4613   25.5614  -76.7517 O.2       6 UNK        -0.5032 
     45 CA        -75.2014   24.2689  -74.8857 C.3       5 UNK         0.0783 
     46 C46       -75.2966   25.2091  -73.6554 C.3       11 UNK        -0.0857 
     47 S47       -76.9675   25.8565  -73.3072 S.3       11 UNK        -0.2512 
     48 C48       -76.6995   26.7147  -71.7288 C.3       11 UNK         0.0225 
     49 N         -76.0850   23.1016  -74.7812 N.am      5 UNK        -0.4615 
     50 C         -75.6693   21.8314  -74.9111 C.2       4 UNK         0.5053 
     51 O         -74.4984   21.5116  -75.1303 O.2       4 UNK        -0.5105 
     52 CA        -76.7157   20.7124  -74.7548 C.3       4 UNK         0.0263 
     53 CB        -76.7494   20.2161  -73.2998 C.3       4 UNK        -0.1981 
     54 N         -78.0653   21.1079  -75.1551 N.am      4 UNK        -0.4224 
     55 C         -78.4600   21.3408  -76.4151 C.2       3 UNK         0.4895 
     56 O         -77.7401   21.1792  -77.4009 O.2       3 UNK        -0.5091 
     57 CA        -79.9015   21.8545  -76.6090 C.3       3 UNK         0.0250 
     58 CB        -80.8305   20.7025  -77.0256 C.3       3 UNK        -0.1996 
     59 N         -80.4672   22.5314  -75.4325 N.am      3 UNK        -0.4254 
     60 C         -79.9616   23.6458  -74.8877 C.2       2 UNK         0.5004 
     61 O         -78.9391   24.1953  -75.3003 O.2       2 UNK        -0.5226 
     62 CA        -80.6551   24.1851  -73.6299 C.3       2 UNK         0.0269 
     63 CB        -80.0269   23.5651  -72.3705 C.3       2 UNK        -0.1926 
     64 N         -80.5119   25.6396  -73.5647 N.am      2 UNK        -0.4687 
     65 C         -81.3470   26.4979  -74.1618 C.2       1 UNK         0.5165 
     66 O         -82.3864   26.1526  -74.7321 O.2       1 UNK        -0.5079 
     67 H67       -80.5020   29.8810  -78.1133 H         1 UNK         0.0900 
     68 H68       -82.0547   30.1086  -77.3048 H         1 UNK         0.0900 
     69 H69       -81.8216   28.7425  -78.3994 H         1 UNK         0.0900 
     70 H70       -82.0413   29.4464  -75.1674 H         1 UNK         0.2959 
     71 H71       -79.9095   28.0834  -73.9380 H         1 UNK         0.1079 
     72 H72       -82.7690   28.5097  -72.8992 H         1 UNK         0.0837 
     73 H73       -81.4108   28.0577  -71.9120 H         1 UNK         0.0837 
     74 H74       -80.5778   29.6929  -70.3667 H         1 UNK         0.0685 
     75 H75       -80.1345   31.3424  -70.7117 H         1 UNK         0.0685 
     76 H76       -79.0865   27.8398  -71.0438 H         1 UNK         0.1434 
     77 H77       -75.2517   28.7831  -72.6736 H         1 UNK         0.1329 
     78 H78       -78.1839   31.8776  -72.1578 H         1 UNK         0.1335 
     79 H79       -76.1355   31.9563  -73.9179 H         1 UNK         0.0680 
     80 H80       -75.5985   32.3691  -72.3095 H         1 UNK         0.0680 
     81 H81       -73.8441   30.9817  -71.0519 H         1 UNK         0.1032 
     82 H82       -72.5895   31.9432  -71.7676 H         1 UNK         0.1032 
     83 H83       -71.4249   30.0997  -70.9047 H         1 UNK         0.0461 
     84 H84       -72.5027   27.5283  -73.0334 H         1 UNK         0.3453 
     85 H85       -73.2546   26.6073  -71.7477 H         1 UNK         0.3453 
     86 H86       -71.6631   30.0808  -73.7630 H         1 UNK         0.2984 
     87 H87       -68.8187   29.5124  -74.5931 H         1 UNK         0.0554 
     88 H88       -68.5113   27.2418  -75.6171 H         1 UNK         0.0847 
     89 H89       -69.6289   26.5607  -74.4360 H         1 UNK         0.0847 
     90 H90       -68.0988   27.2490  -73.9128 H         1 UNK         0.0847 
     91 H91       -70.2985   29.6623  -76.2267 H         1 UNK         0.3141 
     92 H92       -72.2861   29.7691  -77.2339 H         1 UNK         0.0743 
     93 H93       -72.3295   26.7749  -77.9294 H         1 UNK         0.0784 
     94 H94       -72.7227   28.0780  -79.0484 H         1 UNK         0.0784 
     95 H95       -71.0933   27.9307  -78.4067 H         1 UNK         0.0784 
     96 H96       -74.2402   27.6723  -76.3911 H         1 UNK         0.3213 
     97 H97       -76.2292   29.2871  -75.1577 H         1 UNK         0.0855 
     98 H98       -77.4438   30.3394  -77.7616 H         1 UNK         0.0814 
     99 H99       -77.0523   31.3023  -76.3434 H         1 UNK         0.0814 
    100 H100      -78.3056   30.0820  -76.2434 H         1 UNK         0.0814 
    101 H101      -76.9236   27.2955  -75.8059 H         1 UNK         0.3105 
    102 H102      -78.2335   25.7764  -77.8446 H         1 UNK         0.0547 
    103 H103      -77.0941   25.6121  -80.0267 H         1 UNK         0.0837 
    104 H104      -75.5617   25.2455  -79.2488 H         1 UNK         0.0837 
    105 H105      -76.9010   24.1017  -79.1531 H         1 UNK         0.0837 
    106 H106      -77.4342   24.6969  -76.1142 H         1 UNK         0.3020 
    107 H107      -74.1623   23.9336  -74.9273 H         1 UNK         0.1245 
    108 H108      -74.9508   24.6716  -72.7712 H         1 UNK         0.0781 
    109 H109      -74.6173   26.0554  -73.7759 H         1 UNK         0.0781 
    110 H110      -77.2697   26.2094  -70.9478 H         1 UNK         0.0836 
    111 H111      -75.6534   26.6548  -71.4260 H         1 UNK         0.0836 
    112 H112      -77.0700   23.2986  -74.6442 H         1 UNK         0.3022 
    113 H113      -76.4052   19.8814  -75.3921 H         1 UNK         0.0747 
    114 H114      -77.4267   19.3697  -73.1838 H         1 UNK         0.0793 
    115 H115      -75.7611   19.8836  -72.9783 H         1 UNK         0.0793 
    116 H116      -77.0687   21.0004  -72.6119 H         1 UNK         0.0793 
    117 H117      -78.7357   21.2523  -74.4150 H         1 UNK         0.3047 
    118 H118      -79.8725   22.5826  -77.4228 H         1 UNK         0.0822 
    119 H119      -81.8310   21.0643  -77.2639 H         1 UNK         0.0807 
    120 H120      -80.9214   19.9520  -76.2392 H         1 UNK         0.0807 
    121 H121      -80.4515   20.1974  -77.9154 H         1 UNK         0.0807 
    122 H122      -81.2977   22.1198  -75.0301 H         1 UNK         0.2946 
    123 H123      -81.7145   23.9195  -73.6623 H         1 UNK         0.1144 
    124 H124      -80.4931   23.9525  -71.4644 H         1 UNK         0.0793 
    125 H125      -78.9568   23.7666  -72.3072 H         1 UNK         0.0793 
    126 H126      -80.1554   22.4821  -72.3600 H         1 UNK         0.0793 
    127 H127      -79.6386   25.9800  -73.1865 H         1 UNK         0.2896 
@<TRIPOS>BOND
     1    1    2 1    
     2    1   67 1    
     3    1   68 1    
     4    1   69 1    
     5    2    3 2    
     6    2    4 am   BACKBONE|DICT|INTERRES
     7    4    5 1    
     8    4   70 1    
     9    5    6 1    
    10    5   65 1    
    11    5   71 1    
    12    6    7 1    
    13    6   72 1    
    14    6   73 1    
    15    7    8 1    
    16    8    9 1    
    17    8   74 1    
    18    8   75 1    
    19    9   10 ar   
    20    9   14 ar   
    21   10   11 ar   
    22   10   76 1    
    23   11   12 ar   
    24   11   48 1    
    25   12   13 ar   
    26   12   77 1    
    27   13   14 ar   
    28   13   15 1    
    29   14   78 1    
    30   15   16 1    
    31   15   79 1    
    32   15   80 1    
    33   16   17 1    
    34   17   18 1    
    35   17   81 1    
    36   17   82 1    
    37   18   19 1    
    38   18   22 1    
    39   18   83 1    
    40   19   20 am   BACKBONE|DICT|INTERRES
    41   19   21 2    
    42   20   84 1    
    43   20   85 1    
    44   22   23 am   BACKBONE|DICT|INTERRES
    45   22   86 1    
    46   23   24 2    
    47   23   25 1    
    48   25   26 1    
    49   25   27 1    
    50   25   87 1    
    51   26   88 1    
    52   26   89 1    
    53   26   90 1    
    54   27   28 am   BACKBONE|DICT|INTERRES
    55   27   91 1    
    56   28   29 2    
    57   28   30 1    
    58   30   31 1    
    59   30   32 1    
    60   30   92 1    
    61   31   93 1    
    62   31   94 1    
    63   31   95 1    
    64   32   33 am   BACKBONE|DICT|INTERRES
    65   32   96 1    
    66   33   34 2    
    67   33   35 1    
    68   35   36 1    
    69   35   37 1    
    70   35   97 1    
    71   36   98 1    
    72   36   99 1    
    73   36  100 1    
    74   37   38 am   BACKBONE|DICT|INTERRES
    75   37  101 1    
    76   38   39 2    
    77   38   40 1    
    78   40   41 1    
    79   40   42 1    
    80   40  102 1    
    81   41  103 1    
    82   41  104 1    
    83   41  105 1    
    84   42   43 am   BACKBONE|DICT|INTERRES
    85   42  106 1    
    86   43   44 2    
    87   43   45 1    
    88   45   46 1    
    89   45   49 1    
    90   45  107 1    
    91   46   47 1    
    92   46  108 1    
    93   46  109 1    
    94   47   48 1    
    95   48  110 1    
    96   48  111 1    
    97   49   50 am   BACKBONE|DICT|INTERRES
    98   49  112 1    
    99   50   51 2    
   100   50   52 1    
   101   52   53 1    
   102   52   54 1    
   103   52  113 1    
   104   53  114 1    
   105   53  115 1    
   106   53  116 1    
   107   54   55 am   BACKBONE|DICT|INTERRES
   108   54  117 1    
   109   55   56 2    
   110   55   57 1    
   111   57   58 1    
   112   57   59 1    
   113   57  118 1    
   114   58  119 1    
   115   58  120 1    
   116   58  121 1    
   117   59   60 am   BACKBONE|DICT|INTERRES
   118   59  122 1    
   119   60   61 2    
   120   60   62 1    
   121   62   63 1    
   122   62   64 1    
   123   62  123 1    
   124   63  124 1    
   125   63  125 1    
   126   63  126 1    
   127   64   65 am   BACKBONE|DICT|INTERRES
   128   64  127 1    
   129   65   66 2    
@<TRIPOS>SUBSTRUCTURE
     1 UNK         1 GROUP             0       ****    0 ROOT    
