@<TRIPOS>MOLECULE
3R135
127   129    1
SMALL
USER_CHARGES


@<TRIPOS>ATOM
      1 CA        -85.1037   26.7257  -72.0410 C.3       0 UNK        -0.1998 
      2 C         -83.7390   26.9822  -72.6616 C.2       0 UNK         0.4909 
      3 O         -83.5892   27.9161  -73.4512 O.2       0 UNK        -0.5240 
      4 N         -82.7391   26.1633  -72.3117 N.am      1 UNK        -0.4739 
      5 CA        -81.3708   26.2403  -72.8301 C.3       1 UNK         0.0864 
      6 C6        -80.3448   25.5999  -71.8571 C.3       11 UNK        -0.0881 
      7 S7        -80.3038   26.3970  -70.2142 S.3       11 UNK        -0.2682 
      8 C8        -78.5043   26.5735  -69.9189 C.3       11 UNK         0.0289 
      9 C9        -77.8342   27.7961  -70.5539 C.ar      11 UNK        -0.0687 
     10 C10       -78.4343   28.5415  -71.5748 C.ar      11 UNK        -0.0823 
     11 C11       -77.7896   29.6448  -72.1353 C.ar      11 UNK        -0.0830 
     12 C12       -76.5400   30.0319  -71.6483 C.ar      11 UNK        -0.1021 
     13 C13       -75.9215   29.3041  -70.6282 C.ar      11 UNK        -0.0753 
     14 C14       -76.5691   28.1830  -70.0959 C.ar      11 UNK        -0.0933 
     15 C15       -74.5697   29.7419  -70.0804 C.3       11 UNK         0.0166 
     16 S16       -73.2162   29.4145  -71.2525 S.3       11 UNK        -0.2615 
     17 C17       -72.9422   31.0779  -71.9632 C.3       11 UNK        -0.0865 
     18 CA        -71.8326   31.1204  -73.0459 C.3       10 UNK         0.0862 
     19 C         -70.4105   30.9146  -72.4405 C.2       10 UNK         0.5551 
     20 N         -69.6793   29.8591  -72.7816 N.am      10 UNK        -0.7319 
     21 O         -69.9584   31.7423  -71.6528 O.2       10 UNK        -0.5018 
     22 N         -72.1632   30.2438  -74.1770 N.am      10 UNK        -0.4509 
     23 C         -71.6070   30.3048  -75.3933 C.2       10 UNK         0.4899 
     24 O         -70.8474   31.2065  -75.7510 O.2       10 UNK        -0.4839 
     25 CA        -71.9543   29.1601  -76.3678 C.3       9 UNK         0.0222 
     26 CB        -70.8488   28.9168  -77.4161 C.3       9 UNK        -0.1966 
     27 N         -72.3116   27.9014  -75.6994 N.am      9 UNK        -0.4218 
     28 C         -71.5608   27.1850  -74.8473 C.2       9 UNK         0.5020 
     29 O         -70.4348   27.5171  -74.4731 O.2       9 UNK        -0.5274 
     30 CA        -72.1799   25.8894  -74.2987 C.3       8 UNK         0.0270 
     31 CB        -73.0292   26.1851  -73.0529 C.3       8 UNK        -0.1976 
     32 N         -72.9867   25.1752  -75.2923 N.am      8 UNK        -0.4313 
     33 C         -72.4708   24.5347  -76.3523 C.2       8 UNK         0.5041 
     34 O         -71.2630   24.4506  -76.5804 O.2       8 UNK        -0.5577 
     35 CA        -73.4597   23.8690  -77.3232 C.3       7 UNK         0.0284 
     36 CB        -73.9478   22.5252  -76.7593 C.3       7 UNK        -0.1958 
     37 N         -74.6049   24.7217  -77.6485 N.am      7 UNK        -0.4454 
     38 C         -74.5284   25.8561  -78.3598 C.2       7 UNK         0.5089 
     39 O         -73.4884   26.2849  -78.8599 O.2       7 UNK        -0.5125 
     40 CA        -75.8276   26.6661  -78.5250 C.3       6 UNK         0.0408 
     41 CB        -76.6827   26.1034  -79.6708 C.3       6 UNK        -0.1791 
     42 N         -76.6290   26.7348  -77.3006 N.am      6 UNK        -0.4762 
     43 C         -76.2133   27.2749  -76.1442 C.2       6 UNK         0.5007 
     44 O         -75.1033   27.7809  -75.9808 O.2       6 UNK        -0.5032 
     45 CA        -77.1827   27.1682  -74.9514 C.3       5 UNK         0.0783 
     46 C46       -78.3394   28.1975  -75.0544 C.3       11 UNK        -0.0857 
     47 S47       -77.7796   29.9300  -74.8870 S.3       11 UNK        -0.2512 
     48 C48       -78.4482   30.4181  -73.2661 C.3       11 UNK         0.0225 
     49 N         -77.6680   25.7877  -74.8251 N.am      5 UNK        -0.4615 
     50 C         -76.8846   24.7399  -74.5215 C.2       4 UNK         0.5053 
     51 O         -75.6982   24.8436  -74.2152 O.2       4 UNK        -0.5105 
     52 CA        -77.4943   23.3336  -74.6427 C.3       4 UNK         0.0263 
     53 CB        -78.0552   22.8418  -73.3008 C.3       4 UNK        -0.1981 
     54 N         -78.5205   23.2562  -75.6849 N.am      4 UNK        -0.4224 
     55 C         -78.2351   23.2478  -76.9960 C.2       3 UNK         0.4895 
     56 O         -77.0880   23.2656  -77.4398 O.2       3 UNK        -0.5091 
     57 CA        -79.4129   23.2660  -77.9855 C.3       3 UNK         0.0250 
     58 CB        -79.8561   21.8331  -78.3195 C.3       3 UNK        -0.1996 
     59 N         -80.5658   24.0382  -77.5177 N.am      3 UNK        -0.4254 
     60 C         -80.5467   25.3443  -77.2181 C.2       2 UNK         0.5004 
     61 O         -79.5413   26.0491  -77.3196 O.2       2 UNK        -0.5226 
     62 CA        -81.8468   25.9642  -76.6676 C.3       2 UNK         0.0269 
     63 CB        -83.0964   25.0740  -76.8566 C.3       2 UNK        -0.1926 
     64 N         -81.7286   26.3576  -75.2565 N.am      2 UNK        -0.4687 
     65 C         -81.3131   25.5976  -74.2317 C.2       1 UNK         0.5165 
     66 O         -80.9220   24.4351  -74.3559 O.2       1 UNK        -0.5079 
     67 H67       -85.4335   27.6031  -71.4854 H         1 UNK         0.0900 
     68 H68       -85.8370   26.5197  -72.8202 H         1 UNK         0.0900 
     69 H69       -85.0875   25.8775  -71.3568 H         1 UNK         0.0900 
     70 H70       -82.9168   25.4084  -71.6643 H         1 UNK         0.2959 
     71 H71       -81.1104   27.2928  -72.9486 H         1 UNK         0.1079 
     72 H72       -79.3446   25.6448  -72.2919 H         1 UNK         0.0837 
     73 H73       -80.5676   24.5422  -71.7044 H         1 UNK         0.0837 
     74 H74       -78.3591   26.6221  -68.8386 H         1 UNK         0.0685 
     75 H75       -77.9921   25.6703  -70.2536 H         1 UNK         0.0685 
     76 H76       -79.4091   28.2744  -71.9439 H         1 UNK         0.1434 
     77 H77       -76.0501   30.8973  -72.0699 H         1 UNK         0.1329 
     78 H78       -76.0924   27.6160  -69.3077 H         1 UNK         0.1335 
     79 H79       -74.6025   30.8016  -69.8236 H         1 UNK         0.0680 
     80 H80       -74.3503   29.2151  -69.1505 H         1 UNK         0.0680 
     81 H81       -73.8761   31.4325  -72.3983 H         1 UNK         0.1032 
     82 H82       -72.7115   31.7753  -71.1554 H         1 UNK         0.1032 
     83 H83       -71.8266   32.1386  -73.4400 H         1 UNK         0.0461 
     84 H84       -70.0377   29.1569  -73.4208 H         1 UNK         0.3453 
     85 H85       -68.7611   29.7482  -72.3829 H         1 UNK         0.3453 
     86 H86       -72.7651   29.4625  -73.9622 H         1 UNK         0.2984 
     87 H87       -72.8508   29.4792  -76.9010 H         1 UNK         0.0554 
     88 H88       -69.9016   28.6462  -76.9483 H         1 UNK         0.0847 
     89 H89       -70.6725   29.8094  -78.0174 H         1 UNK         0.0847 
     90 H90       -71.1253   28.1154  -78.1018 H         1 UNK         0.0847 
     91 H91       -73.2664   27.5903  -75.8728 H         1 UNK         0.3141 
     92 H92       -71.3597   25.2342  -73.9976 H         1 UNK         0.0743 
     93 H93       -73.8716   26.8401  -73.2808 H         1 UNK         0.0784 
     94 H94       -73.4277   25.2687  -72.6173 H         1 UNK         0.0784 
     95 H95       -72.4313   26.6738  -72.2829 H         1 UNK         0.0784 
     96 H96       -73.9911   25.1534  -75.1343 H         1 UNK         0.3213 
     97 H97       -72.9239   23.6676  -78.2534 H         1 UNK         0.0855 
     98 H98       -74.4967   22.6546  -75.8268 H         1 UNK         0.0814 
     99 H99       -73.1072   21.8614  -76.5527 H         1 UNK         0.0814 
    100 H100      -74.6002   22.0109  -77.4652 H         1 UNK         0.0814 
    101 H101      -75.5210   24.3918  -77.3564 H         1 UNK         0.3105 
    102 H102      -75.5469   27.6889  -78.7848 H         1 UNK         0.0547 
    103 H103      -76.1232   26.0985  -80.6071 H         1 UNK         0.0837 
    104 H104      -76.9978   25.0785  -79.4757 H         1 UNK         0.0837 
    105 H105      -77.5782   26.7040  -79.8309 H         1 UNK         0.0837 
    106 H106      -77.5729   26.3600  -77.3453 H         1 UNK         0.3020 
    107 H107      -76.6115   27.3931  -74.0466 H         1 UNK         0.1245 
    108 H108      -79.0918   27.9913  -74.2952 H         1 UNK         0.0781 
    109 H109      -78.8598   28.1116  -76.0083 H         1 UNK         0.0781 
    110 H110      -79.5303   30.2776  -73.2591 H         1 UNK         0.0836 
    111 H111      -78.2812   31.4868  -73.1230 H         1 UNK         0.0836 
    112 H112      -78.6049   25.6052  -75.1551 H         1 UNK         0.3022 
    113 H113      -76.6835   22.6558  -74.9160 H         1 UNK         0.0747 
    114 H114      -78.3476   21.7933  -73.3585 H         1 UNK         0.0793 
    115 H115      -77.3089   22.9265  -72.5095 H         1 UNK         0.0793 
    116 H116      -78.9276   23.4102  -72.9897 H         1 UNK         0.0793 
    117 H117      -79.4885   23.3097  -75.3842 H         1 UNK         0.3047 
    118 H118      -79.0574   23.7357  -78.9049 H         1 UNK         0.0822 
    119 H119      -80.6242   21.8247  -79.0931 H         1 UNK         0.0807 
    120 H120      -80.2537   21.3180  -77.4440 H         1 UNK         0.0807 
    121 H121      -79.0176   21.2428  -78.6922 H         1 UNK         0.0807 
    122 H122      -81.4269   23.5302  -77.3765 H         1 UNK         0.2946 
    123 H123      -82.0035   26.8809  -77.2389 H         1 UNK         0.1144 
    124 H124      -83.9986   25.6045  -76.5514 H         1 UNK         0.0793 
    125 H125      -83.0454   24.1569  -76.2685 H         1 UNK         0.0793 
    126 H126      -83.2325   24.7965  -77.9030 H         1 UNK         0.0793 
    127 H127      -82.0783   27.2819  -75.0328 H         1 UNK         0.2896 
@<TRIPOS>BOND
     1    1    2 1    
     2    1   67 1    
     3    1   68 1    
     4    1   69 1    
     5    2    3 2    
     6    2    4 am   BACKBONE|DICT|INTERRES
     7    4    5 1    
     8    4   70 1    
     9    5    6 1    
    10    5   65 1    
    11    5   71 1    
    12    6    7 1    
    13    6   72 1    
    14    6   73 1    
    15    7    8 1    
    16    8    9 1    
    17    8   74 1    
    18    8   75 1    
    19    9   10 ar   
    20    9   14 ar   
    21   10   11 ar   
    22   10   76 1    
    23   11   12 ar   
    24   11   48 1    
    25   12   13 ar   
    26   12   77 1    
    27   13   14 ar   
    28   13   15 1    
    29   14   78 1    
    30   15   16 1    
    31   15   79 1    
    32   15   80 1    
    33   16   17 1    
    34   17   18 1    
    35   17   81 1    
    36   17   82 1    
    37   18   19 1    
    38   18   22 1    
    39   18   83 1    
    40   19   20 am   BACKBONE|DICT|INTERRES
    41   19   21 2    
    42   20   84 1    
    43   20   85 1    
    44   22   23 am   BACKBONE|DICT|INTERRES
    45   22   86 1    
    46   23   24 2    
    47   23   25 1    
    48   25   26 1    
    49   25   27 1    
    50   25   87 1    
    51   26   88 1    
    52   26   89 1    
    53   26   90 1    
    54   27   28 am   BACKBONE|DICT|INTERRES
    55   27   91 1    
    56   28   29 2    
    57   28   30 1    
    58   30   31 1    
    59   30   32 1    
    60   30   92 1    
    61   31   93 1    
    62   31   94 1    
    63   31   95 1    
    64   32   33 am   BACKBONE|DICT|INTERRES
    65   32   96 1    
    66   33   34 2    
    67   33   35 1    
    68   35   36 1    
    69   35   37 1    
    70   35   97 1    
    71   36   98 1    
    72   36   99 1    
    73   36  100 1    
    74   37   38 am   BACKBONE|DICT|INTERRES
    75   37  101 1    
    76   38   39 2    
    77   38   40 1    
    78   40   41 1    
    79   40   42 1    
    80   40  102 1    
    81   41  103 1    
    82   41  104 1    
    83   41  105 1    
    84   42   43 am   BACKBONE|DICT|INTERRES
    85   42  106 1    
    86   43   44 2    
    87   43   45 1    
    88   45   46 1    
    89   45   49 1    
    90   45  107 1    
    91   46   47 1    
    92   46  108 1    
    93   46  109 1    
    94   47   48 1    
    95   48  110 1    
    96   48  111 1    
    97   49   50 am   BACKBONE|DICT|INTERRES
    98   49  112 1    
    99   50   51 2    
   100   50   52 1    
   101   52   53 1    
   102   52   54 1    
   103   52  113 1    
   104   53  114 1    
   105   53  115 1    
   106   53  116 1    
   107   54   55 am   BACKBONE|DICT|INTERRES
   108   54  117 1    
   109   55   56 2    
   110   55   57 1    
   111   57   58 1    
   112   57   59 1    
   113   57  118 1    
   114   58  119 1    
   115   58  120 1    
   116   58  121 1    
   117   59   60 am   BACKBONE|DICT|INTERRES
   118   59  122 1    
   119   60   61 2    
   120   60   62 1    
   121   62   63 1    
   122   62   64 1    
   123   62  123 1    
   124   63  124 1    
   125   63  125 1    
   126   63  126 1    
   127   64   65 am   BACKBONE|DICT|INTERRES
   128   64  127 1    
   129   65   66 2    
@<TRIPOS>SUBSTRUCTURE
     1 UNK         1 GROUP             0       ****    0 ROOT    
