@<TRIPOS>MOLECULE
3R135
127   129    1
SMALL
USER_CHARGES


@<TRIPOS>ATOM
      1 CA        -83.7480   27.7840  -72.3588 C.3       0 UNK        -0.1998 
      2 C         -83.1353   28.0215  -73.7308 C.2       0 UNK         0.4909 
      3 O         -83.8586   28.0635  -74.7263 O.2       0 UNK        -0.5240 
      4 N         -81.8060   28.1759  -73.7901 N.am      1 UNK        -0.4739 
      5 CA        -81.0455   28.4095  -75.0272 C.3       1 UNK         0.0864 
      6 C6        -79.6573   29.0330  -74.7492 C.3       11 UNK        -0.0881 
      7 S7        -79.7663   30.6408  -73.8877 S.3       11 UNK        -0.2682 
      8 C8        -79.4269   30.1933  -72.1521 C.3       11 UNK         0.0289 
      9 C9        -78.0012   29.6993  -71.9664 C.ar      11 UNK        -0.0687 
     10 C10       -77.7376   28.3338  -71.8242 C.ar      11 UNK        -0.0823 
     11 C11       -76.4216   27.8695  -71.7322 C.ar      11 UNK        -0.0830 
     12 C12       -75.3721   28.7955  -71.7404 C.ar      11 UNK        -0.1021 
     13 C13       -75.6226   30.1699  -71.8415 C.ar      11 UNK        -0.0753 
     14 C14       -76.9430   30.6110  -71.9596 C.ar      11 UNK        -0.0933 
     15 C15       -74.4900   31.1912  -71.9062 C.3       11 UNK         0.0166 
     16 S16       -73.0645   30.7946  -70.8413 S.3       11 UNK        -0.2615 
     17 C17       -71.7922   31.8801  -71.5798 C.3       11 UNK        -0.0865 
     18 CA        -70.8034   31.1354  -72.5184 C.3       10 UNK         0.0862 
     19 C         -69.7725   30.2751  -71.7272 C.2       10 UNK         0.5551 
     20 N         -69.6977   28.9656  -71.9334 N.am      10 UNK        -0.7319 
     21 O         -69.0157   30.8123  -70.9219 O.2       10 UNK        -0.5018 
     22 N         -71.5082   30.4282  -73.6022 N.am      10 UNK        -0.4509 
     23 C         -70.9724   30.1000  -74.7846 C.2       10 UNK         0.4899 
     24 O         -69.8283   30.4015  -75.1255 O.2       10 UNK        -0.4839 
     25 CA        -71.8499   29.2872  -75.7523 C.3       9 UNK         0.0222 
     26 CB        -71.5461   27.7860  -75.6170 C.3       9 UNK        -0.1966 
     27 N         -73.2873   29.4988  -75.5679 N.am      9 UNK        -0.4218 
     28 C         -73.9749   30.5866  -75.9348 C.2       9 UNK         0.5020 
     29 O         -73.4555   31.5738  -76.4586 O.2       9 UNK        -0.5274 
     30 CA        -75.5006   30.5514  -75.6863 C.3       8 UNK         0.0270 
     31 CB        -76.2147   31.8333  -76.1527 C.3       8 UNK        -0.1976 
     32 N         -76.1612   29.3908  -76.2933 N.am      8 UNK        -0.4313 
     33 C         -76.0713   28.1293  -75.8517 C.2       8 UNK         0.5041 
     34 O         -75.3773   27.8076  -74.8858 O.2       8 UNK        -0.5577 
     35 CA        -76.8812   27.0499  -76.5960 C.3       7 UNK         0.0284 
     36 CB        -77.2921   27.4354  -78.0345 C.3       7 UNK        -0.1958 
     37 N         -76.2034   25.7508  -76.5777 N.am      7 UNK        -0.4454 
     38 C         -74.9883   25.4595  -77.0689 C.2       7 UNK         0.5089 
     39 O         -74.2990   26.2542  -77.7107 O.2       7 UNK        -0.5125 
     40 CA        -74.4676   24.0263  -76.8378 C.3       6 UNK         0.0408 
     41 CB        -72.9273   23.9526  -76.7600 C.3       6 UNK        -0.1791 
     42 N         -75.1058   23.3479  -75.7014 N.am      6 UNK        -0.4762 
     43 C         -74.9748   23.6212  -74.3911 C.2       6 UNK         0.5007 
     44 O         -74.1705   24.4373  -73.9414 O.2       6 UNK        -0.5032 
     45 CA        -75.8878   22.8402  -73.4167 C.3       5 UNK         0.0783 
     46 C46       -76.3936   23.6659  -72.2009 C.3       11 UNK        -0.0857 
     47 S47       -77.1831   25.2741  -72.5803 S.3       11 UNK        -0.2512 
     48 C48       -76.1029   26.3813  -71.6030 C.3       11 UNK         0.0225 
     49 N         -76.9896   22.1772  -74.1271 N.am      5 UNK        -0.4615 
     50 C         -77.0882   20.8497  -74.2979 C.2       4 UNK         0.5053 
     51 O         -76.3119   20.0365  -73.7960 O.2       4 UNK        -0.5105 
     52 CA        -78.2210   20.3237  -75.2012 C.3       4 UNK         0.0263 
     53 CB        -79.4445   19.9405  -74.3532 C.3       4 UNK        -0.1981 
     54 N         -78.6386   21.2602  -76.2470 N.am      4 UNK        -0.4224 
     55 C         -77.8538   21.7738  -77.2059 C.2       3 UNK         0.4895 
     56 O         -76.6790   21.4481  -77.3714 O.2       3 UNK        -0.5091 
     57 CA        -78.4556   22.8795  -78.0954 C.3       3 UNK         0.0250 
     58 CB        -78.7820   22.3285  -79.4924 C.3       3 UNK        -0.1996 
     59 N         -79.6543   23.5136  -77.5326 N.am      3 UNK        -0.4254 
     60 C         -79.6942   24.2056  -76.3854 C.2       2 UNK         0.5004 
     61 O         -78.7102   24.3950  -75.6652 O.2       2 UNK        -0.5226 
     62 CA        -81.0877   24.6523  -75.9213 C.3       2 UNK         0.0269 
     63 CB        -81.6755   23.6140  -74.9510 C.3       2 UNK        -0.1926 
     64 N         -81.0722   25.9556  -75.2609 N.am      2 UNK        -0.4687 
     65 C         -80.9091   27.1312  -75.8840 C.2       1 UNK         0.5165 
     66 O         -80.6876   27.2355  -77.0909 O.2       1 UNK        -0.5079 
     67 H67       -84.4722   28.5659  -72.1317 H         1 UNK         0.0900 
     68 H68       -84.2646   26.8248  -72.3397 H         1 UNK         0.0900 
     69 H69       -82.9957   27.7801  -71.5702 H         1 UNK         0.0900 
     70 H70       -81.2638   28.1426  -72.9401 H         1 UNK         0.2959 
     71 H71       -81.6101   29.1222  -75.6333 H         1 UNK         0.1079 
     72 H72       -79.0252   28.3408  -74.1937 H         1 UNK         0.0837 
     73 H73       -79.1372   29.2178  -75.6907 H         1 UNK         0.0837 
     74 H74       -80.1454   29.4460  -71.8145 H         1 UNK         0.0685 
     75 H75       -79.5884   31.0720  -71.5259 H         1 UNK         0.0685 
     76 H76       -78.5567   27.6287  -71.8145 H         1 UNK         0.1434 
     77 H77       -74.3533   28.4393  -71.6800 H         1 UNK         0.1329 
     78 H78       -77.1513   31.6661  -72.0750 H         1 UNK         0.1335 
     79 H79       -74.8556   32.1804  -71.6255 H         1 UNK         0.0680 
     80 H80       -74.1584   31.2687  -72.9406 H         1 UNK         0.0680 
     81 H81       -72.2797   32.6850  -72.1320 H         1 UNK         0.1032 
     82 H82       -71.2539   32.3803  -70.7723 H         1 UNK         0.1032 
     83 H83       -70.2017   31.9114  -72.9959 H         1 UNK         0.0461 
     84 H84       -70.3131   28.5180  -72.5920 H         1 UNK         0.3453 
     85 H85       -69.0224   28.4219  -71.4197 H         1 UNK         0.3453 
     86 H86       -72.4409   30.1099  -73.3879 H         1 UNK         0.2984 
     87 H87       -71.5904   29.5954  -76.7672 H         1 UNK         0.0554 
     88 H88       -70.4813   27.5863  -75.7453 H         1 UNK         0.0847 
     89 H89       -72.0751   27.2076  -76.3746 H         1 UNK         0.0847 
     90 H90       -71.8383   27.3984  -74.6401 H         1 UNK         0.0847 
     91 H91       -73.8342   28.7260  -75.1851 H         1 UNK         0.3141 
     92 H92       -75.6440   30.4794  -74.6086 H         1 UNK         0.0743 
     93 H93       -75.7860   32.7153  -75.6749 H         1 UNK         0.0784 
     94 H94       -77.2738   31.8128  -75.8936 H         1 UNK         0.0784 
     95 H95       -76.1326   31.9727  -77.2313 H         1 UNK         0.0784 
     96 H96       -76.7048   29.5694  -77.1248 H         1 UNK         0.3213 
     97 H97       -77.7937   26.9128  -76.0155 H         1 UNK         0.0855 
     98 H98       -76.4298   27.6840  -78.6544 H         1 UNK         0.0814 
     99 H99       -77.9698   28.2896  -78.0414 H         1 UNK         0.0814 
    100 H100      -77.8231   26.6155  -78.5188 H         1 UNK         0.0814 
    101 H101      -76.6889   25.0372  -76.0470 H         1 UNK         0.3105 
    102 H102      -74.7696   23.4611  -77.7204 H         1 UNK         0.0547 
    103 H103      -72.5854   22.9330  -76.5837 H         1 UNK         0.0837 
    104 H104      -72.5289   24.5850  -75.9665 H         1 UNK         0.0837 
    105 H105      -72.4742   24.2880  -77.6935 H         1 UNK         0.0837 
    106 H106      -75.7522   22.6121  -75.9674 H         1 UNK         0.3020 
    107 H107      -75.2255   22.0780  -73.0002 H         1 UNK         0.1245 
    108 H108      -75.5570   23.8341  -71.5208 H         1 UNK         0.0781 
    109 H109      -77.1056   23.0720  -71.6258 H         1 UNK         0.0781 
    110 H110      -75.0723   26.2016  -71.9143 H         1 UNK         0.0836 
    111 H111      -76.1663   26.1039  -70.5502 H         1 UNK         0.0836 
    112 H112      -77.6696   22.7932  -74.5597 H         1 UNK         0.3022 
    113 H113      -77.8501   19.4245  -75.6976 H         1 UNK         0.0747 
    114 H114      -80.2225   19.4794  -74.9620 H         1 UNK         0.0793 
    115 H115      -79.1732   19.2206  -73.5795 H         1 UNK         0.0793 
    116 H116      -79.8773   20.8081  -73.8531 H         1 UNK         0.0793 
    117 H117      -79.5914   21.5874  -76.1999 H         1 UNK         0.3047 
    118 H118      -77.6935   23.6542  -78.2033 H         1 UNK         0.0822 
    119 H119      -79.1221   23.1188  -80.1619 H         1 UNK         0.0807 
    120 H120      -79.5569   21.5618  -79.4542 H         1 UNK         0.0807 
    121 H121      -77.9002   21.8775  -79.9504 H         1 UNK         0.0807 
    122 H122      -80.5106   23.3869  -78.0539 H         1 UNK         0.2946 
    123 H123      -81.7430   24.7269  -76.7925 H         1 UNK         0.1144 
    124 H124      -82.6776   23.8961  -74.6271 H         1 UNK         0.0793 
    125 H125      -81.0556   23.4978  -74.0605 H         1 UNK         0.0793 
    126 H126      -81.7562   22.6338  -75.4228 H         1 UNK         0.0793 
    127 H127      -81.2189   25.9617  -74.2627 H         1 UNK         0.2896 
@<TRIPOS>BOND
     1    1    2 1    
     2    1   67 1    
     3    1   68 1    
     4    1   69 1    
     5    2    3 2    
     6    2    4 am   BACKBONE|DICT|INTERRES
     7    4    5 1    
     8    4   70 1    
     9    5    6 1    
    10    5   65 1    
    11    5   71 1    
    12    6    7 1    
    13    6   72 1    
    14    6   73 1    
    15    7    8 1    
    16    8    9 1    
    17    8   74 1    
    18    8   75 1    
    19    9   10 ar   
    20    9   14 ar   
    21   10   11 ar   
    22   10   76 1    
    23   11   12 ar   
    24   11   48 1    
    25   12   13 ar   
    26   12   77 1    
    27   13   14 ar   
    28   13   15 1    
    29   14   78 1    
    30   15   16 1    
    31   15   79 1    
    32   15   80 1    
    33   16   17 1    
    34   17   18 1    
    35   17   81 1    
    36   17   82 1    
    37   18   19 1    
    38   18   22 1    
    39   18   83 1    
    40   19   20 am   BACKBONE|DICT|INTERRES
    41   19   21 2    
    42   20   84 1    
    43   20   85 1    
    44   22   23 am   BACKBONE|DICT|INTERRES
    45   22   86 1    
    46   23   24 2    
    47   23   25 1    
    48   25   26 1    
    49   25   27 1    
    50   25   87 1    
    51   26   88 1    
    52   26   89 1    
    53   26   90 1    
    54   27   28 am   BACKBONE|DICT|INTERRES
    55   27   91 1    
    56   28   29 2    
    57   28   30 1    
    58   30   31 1    
    59   30   32 1    
    60   30   92 1    
    61   31   93 1    
    62   31   94 1    
    63   31   95 1    
    64   32   33 am   BACKBONE|DICT|INTERRES
    65   32   96 1    
    66   33   34 2    
    67   33   35 1    
    68   35   36 1    
    69   35   37 1    
    70   35   97 1    
    71   36   98 1    
    72   36   99 1    
    73   36  100 1    
    74   37   38 am   BACKBONE|DICT|INTERRES
    75   37  101 1    
    76   38   39 2    
    77   38   40 1    
    78   40   41 1    
    79   40   42 1    
    80   40  102 1    
    81   41  103 1    
    82   41  104 1    
    83   41  105 1    
    84   42   43 am   BACKBONE|DICT|INTERRES
    85   42  106 1    
    86   43   44 2    
    87   43   45 1    
    88   45   46 1    
    89   45   49 1    
    90   45  107 1    
    91   46   47 1    
    92   46  108 1    
    93   46  109 1    
    94   47   48 1    
    95   48  110 1    
    96   48  111 1    
    97   49   50 am   BACKBONE|DICT|INTERRES
    98   49  112 1    
    99   50   51 2    
   100   50   52 1    
   101   52   53 1    
   102   52   54 1    
   103   52  113 1    
   104   53  114 1    
   105   53  115 1    
   106   53  116 1    
   107   54   55 am   BACKBONE|DICT|INTERRES
   108   54  117 1    
   109   55   56 2    
   110   55   57 1    
   111   57   58 1    
   112   57   59 1    
   113   57  118 1    
   114   58  119 1    
   115   58  120 1    
   116   58  121 1    
   117   59   60 am   BACKBONE|DICT|INTERRES
   118   59  122 1    
   119   60   61 2    
   120   60   62 1    
   121   62   63 1    
   122   62   64 1    
   123   62  123 1    
   124   63  124 1    
   125   63  125 1    
   126   63  126 1    
   127   64   65 am   BACKBONE|DICT|INTERRES
   128   64  127 1    
   129   65   66 2    
@<TRIPOS>SUBSTRUCTURE
     1 UNK         1 GROUP             0       ****    0 ROOT    
