@<TRIPOS>MOLECULE
3R135
127   129    1
SMALL
USER_CHARGES


@<TRIPOS>ATOM
      1 CA        -85.1072   30.1162  -75.3304 C.3       0 UNK        -0.1998 
      2 C         -83.9991   29.2209  -74.7946 C.2       0 UNK         0.4909 
      3 O         -84.2930   28.2715  -74.0680 O.2       0 UNK        -0.5240 
      4 N         -82.7446   29.5300  -75.1586 N.am      1 UNK        -0.4739 
      5 CA        -81.4916   28.8434  -74.8035 C.3       1 UNK         0.0864 
      6 C6        -80.8578   29.3381  -73.4692 C.3       11 UNK        -0.0881 
      7 S7        -81.7931   28.9604  -71.9470 S.3       11 UNK        -0.2682 
      8 C8        -80.8236   29.8695  -70.7002 C.3       11 UNK         0.0289 
      9 C9        -79.3893   29.3665  -70.5890 C.ar      11 UNK        -0.0687 
     10 C10       -79.1320   28.0165  -70.3271 C.ar      11 UNK        -0.0823 
     11 C11       -77.8198   27.5444  -70.2313 C.ar      11 UNK        -0.0830 
     12 C12       -76.7607   28.4515  -70.3430 C.ar      11 UNK        -0.1021 
     13 C13       -77.0017   29.7938  -70.6429 C.ar      11 UNK        -0.0753 
     14 C14       -78.3179   30.2500  -70.7567 C.ar      11 UNK        -0.0933 
     15 C15       -75.8302   30.7304  -70.8818 C.3       11 UNK         0.0166 
     16 S16       -75.3218   30.6834  -72.6319 S.3       11 UNK        -0.2615 
     17 C17       -73.5411   31.0755  -72.4968 C.3       11 UNK        -0.0865 
     18 CA        -72.6073   29.8691  -72.7939 C.3       10 UNK         0.0862 
     19 C         -72.7700   28.6944  -71.7882 C.2       10 UNK         0.5551 
     20 N         -73.0007   27.4649  -72.2311 N.am      10 UNK        -0.7319 
     21 O         -72.6555   28.8991  -70.5824 O.2       10 UNK        -0.5018 
     22 N         -72.6436   29.4629  -74.2088 N.am      10 UNK        -0.4509 
     23 C         -71.8719   29.9841  -75.1695 C.2       10 UNK         0.4899 
     24 O         -71.0831   30.9137  -74.9865 O.2       10 UNK        -0.4839 
     25 CA        -72.0011   29.3457  -76.5656 C.3       9 UNK         0.0222 
     26 CB        -71.0025   29.9173  -77.5941 C.3       9 UNK        -0.1966 
     27 N         -71.9236   27.8815  -76.5208 N.am      9 UNK        -0.4218 
     28 C         -70.9115   27.1142  -76.0862 C.2       9 UNK         0.5020 
     29 O         -69.8328   27.5568  -75.6887 O.2       9 UNK        -0.5274 
     30 CA        -71.1329   25.5867  -76.0772 C.3       8 UNK         0.0270 
     31 CB        -71.2881   25.0715  -74.6369 C.3       8 UNK        -0.1976 
     32 N         -72.2897   25.1495  -76.8655 N.am      8 UNK        -0.4313 
     33 C         -72.3360   25.1309  -78.2049 C.2       8 UNK         0.5041 
     34 O         -71.3746   25.3962  -78.9276 O.2       8 UNK        -0.5577 
     35 CA        -73.6949   24.8018  -78.8469 C.3       7 UNK         0.0284 
     36 CB        -73.9051   23.2815  -78.9283 C.3       7 UNK        -0.1958 
     37 N         -74.8220   25.4262  -78.1450 N.am      7 UNK        -0.4454 
     38 C         -75.0181   26.7503  -78.0475 C.2       7 UNK         0.5089 
     39 O         -74.2968   27.5901  -78.5839 O.2       7 UNK        -0.5125 
     40 CA        -76.1776   27.2257  -77.1576 C.3       6 UNK         0.0408 
     41 CB        -77.5172   27.1396  -77.9051 C.3       6 UNK        -0.1791 
     42 N         -76.2619   26.4760  -75.9050 N.am      6 UNK        -0.4762 
     43 C         -75.3371   26.4876  -74.9353 C.2       6 UNK         0.5007 
     44 O         -74.3248   27.1902  -74.9528 O.2       6 UNK        -0.5032 
     45 CA        -75.5529   25.5258  -73.7542 C.3       5 UNK         0.0783 
     46 C46       -76.4393   26.1741  -72.6707 C.3       11 UNK        -0.0857 
     47 S47       -76.2099   25.3640  -71.0506 S.3       11 UNK        -0.2512 
     48 C48       -77.5689   26.0507  -70.0338 C.3       11 UNK         0.0225 
     49 N         -76.0655   24.2281  -74.1943 N.am      5 UNK        -0.4615 
     50 C         -75.3626   23.3476  -74.9173 C.2       4 UNK         0.5053 
     51 O         -74.1993   23.5303  -75.2771 O.2       4 UNK        -0.5105 
     52 CA        -76.0991   22.0670  -75.3410 C.3       4 UNK         0.0263 
     53 CB        -76.1171   21.0457  -74.1927 C.3       4 UNK        -0.1981 
     54 N         -77.4692   22.3301  -75.7912 N.am      4 UNK        -0.4224 
     55 C         -77.7740   23.0270  -76.8949 C.2       3 UNK         0.4895 
     56 O         -76.9350   23.5027  -77.6593 O.2       3 UNK        -0.5091 
     57 CA        -79.2660   23.2675  -77.1768 C.3       3 UNK         0.0250 
     58 CB        -79.8976   22.0314  -77.8374 C.3       3 UNK        -0.1996 
     59 N         -80.0575   23.6605  -76.0037 N.am      3 UNK        -0.4254 
     60 C         -79.8033   24.7221  -75.2257 C.2       2 UNK         0.5004 
     61 O         -78.7849   25.4102  -75.3101 O.2       2 UNK        -0.5226 
     62 CA        -80.8527   25.0749  -74.1597 C.3       2 UNK         0.0269 
     63 CB        -80.4374   24.5151  -72.7896 C.3       2 UNK        -0.1926 
     64 N         -81.0227   26.5269  -74.0547 N.am      2 UNK        -0.4687 
     65 C         -81.5353   27.3093  -75.0158 C.2       1 UNK         0.5165 
     66 O         -82.0028   26.8662  -76.0687 O.2       1 UNK        -0.5079 
     67 H67       -85.8059   29.5313  -75.9279 H         1 UNK         0.0900 
     68 H68       -84.7188   30.9207  -75.9547 H         1 UNK         0.0900 
     69 H69       -85.6581   30.5652  -74.5044 H         1 UNK         0.0900 
     70 H70       -82.6195   30.3152  -75.7822 H         1 UNK         0.2959 
     71 H71       -80.7962   29.1676  -75.5798 H         1 UNK         0.1079 
     72 H72       -80.7335   30.4210  -73.5184 H         1 UNK         0.0837 
     73 H73       -79.8455   28.9419  -73.3665 H         1 UNK         0.0837 
     74 H74       -81.3103   29.7628  -69.7300 H         1 UNK         0.0685 
     75 H75       -80.8479   30.9332  -70.9420 H         1 UNK         0.0685 
     76 H76       -79.9609   27.3298  -70.2203 H         1 UNK         0.1434 
     77 H77       -75.7404   28.1003  -70.2640 H         1 UNK         0.1329 
     78 H78       -78.5048   31.2901  -70.9864 H         1 UNK         0.1335 
     79 H79       -76.0906   31.7534  -70.6061 H         1 UNK         0.0680 
     80 H80       -74.9996   30.4377  -70.2379 H         1 UNK         0.0680 
     81 H81       -73.3233   31.4834  -71.5082 H         1 UNK         0.1032 
     82 H82       -73.3210   31.8871  -73.1918 H         1 UNK         0.1032 
     83 H83       -71.5911   30.2144  -72.5938 H         1 UNK         0.0461 
     84 H84       -73.0845   26.7182  -71.5606 H         1 UNK         0.3453 
     85 H85       -73.1256   27.2881  -73.2158 H         1 UNK         0.3453 
     86 H86       -73.2879   28.7145  -74.4481 H         1 UNK         0.2984 
     87 H87       -73.0061   29.5839  -76.9168 H         1 UNK         0.0554 
     88 H88       -71.1453   29.4657  -78.5759 H         1 UNK         0.0847 
     89 H89       -69.9680   29.7483  -77.2939 H         1 UNK         0.0847 
     90 H90       -71.1353   30.9936  -77.7104 H         1 UNK         0.0847 
     91 H91       -72.7731   27.4058  -76.7963 H         1 UNK         0.3141 
     92 H92       -70.2375   25.1305  -76.5045 H         1 UNK         0.0743 
     93 H93       -72.1905   25.4597  -74.1664 H         1 UNK         0.0784 
     94 H94       -71.3418   23.9830  -74.6101 H         1 UNK         0.0784 
     95 H95       -70.4412   25.3697  -74.0174 H         1 UNK         0.0784 
     96 H96       -73.1025   24.8282  -76.3463 H         1 UNK         0.3213 
     97 H97       -73.6813   25.1969  -79.8650 H         1 UNK         0.0855 
     98 H98       -73.9659   22.8273  -77.9390 H         1 UNK         0.0814 
     99 H99       -73.0821   22.8010  -79.4590 H         1 UNK         0.0814 
    100 H100      -74.8224   23.0371  -79.4643 H         1 UNK         0.0814 
    101 H101      -75.5052   24.7985  -77.7276 H         1 UNK         0.3105 
    102 H102      -75.9974   28.2726  -76.9044 H         1 UNK         0.0547 
    103 H103      -77.4886   27.7232  -78.8261 H         1 UNK         0.0837 
    104 H104      -77.7639   26.1129  -78.1758 H         1 UNK         0.0837 
    105 H105      -78.3351   27.5286  -77.2982 H         1 UNK         0.0837 
    106 H106      -77.1043   25.9194  -75.7621 H         1 UNK         0.3020 
    107 H107      -74.5652   25.3492  -73.3239 H         1 UNK         0.1245 
    108 H108      -76.1704   27.2251  -72.5592 H         1 UNK         0.0781 
    109 H109      -77.4923   26.1577  -72.9553 H         1 UNK         0.0781 
    110 H110      -78.4733   25.4831  -70.2569 H         1 UNK         0.0836 
    111 H111      -77.3461   25.8680  -68.9820 H         1 UNK         0.0836 
    112 H112      -77.0309   24.0286  -73.9805 H         1 UNK         0.3022 
    113 H113      -75.5481   21.6304  -76.1769 H         1 UNK         0.0747 
    114 H114      -76.5642   20.1027  -74.5077 H         1 UNK         0.0793 
    115 H115      -75.1040   20.8244  -73.8536 H         1 UNK         0.0793 
    116 H116      -76.6762   21.4120  -73.3307 H         1 UNK         0.0793 
    117 H117      -78.2223   21.9784  -75.2182 H         1 UNK         0.3047 
    118 H118      -79.3251   24.0936  -77.8885 H         1 UNK         0.0822 
    119 H119      -79.9237   21.1772  -77.1598 H         1 UNK         0.0807 
    120 H120      -79.3329   21.7295  -78.7209 H         1 UNK         0.0807 
    121 H121      -80.9182   22.2331  -78.1633 H         1 UNK         0.0807 
    122 H122      -80.9091   23.1404  -75.8474 H         1 UNK         0.2946 
    123 H123      -81.8137   24.6412  -74.4453 H         1 UNK         0.1144 
    124 H124      -81.1801   24.7451  -72.0254 H         1 UNK         0.0793 
    125 H125      -79.4814   24.9215  -72.4599 H         1 UNK         0.0793 
    126 H126      -80.3354   23.4297  -72.8245 H         1 UNK         0.0793 
    127 H127      -80.6732   26.9697  -73.2170 H         1 UNK         0.2896 
@<TRIPOS>BOND
     1    1    2 1    
     2    1   67 1    
     3    1   68 1    
     4    1   69 1    
     5    2    3 2    
     6    2    4 am   BACKBONE|DICT|INTERRES
     7    4    5 1    
     8    4   70 1    
     9    5    6 1    
    10    5   65 1    
    11    5   71 1    
    12    6    7 1    
    13    6   72 1    
    14    6   73 1    
    15    7    8 1    
    16    8    9 1    
    17    8   74 1    
    18    8   75 1    
    19    9   10 ar   
    20    9   14 ar   
    21   10   11 ar   
    22   10   76 1    
    23   11   12 ar   
    24   11   48 1    
    25   12   13 ar   
    26   12   77 1    
    27   13   14 ar   
    28   13   15 1    
    29   14   78 1    
    30   15   16 1    
    31   15   79 1    
    32   15   80 1    
    33   16   17 1    
    34   17   18 1    
    35   17   81 1    
    36   17   82 1    
    37   18   19 1    
    38   18   22 1    
    39   18   83 1    
    40   19   20 am   BACKBONE|DICT|INTERRES
    41   19   21 2    
    42   20   84 1    
    43   20   85 1    
    44   22   23 am   BACKBONE|DICT|INTERRES
    45   22   86 1    
    46   23   24 2    
    47   23   25 1    
    48   25   26 1    
    49   25   27 1    
    50   25   87 1    
    51   26   88 1    
    52   26   89 1    
    53   26   90 1    
    54   27   28 am   BACKBONE|DICT|INTERRES
    55   27   91 1    
    56   28   29 2    
    57   28   30 1    
    58   30   31 1    
    59   30   32 1    
    60   30   92 1    
    61   31   93 1    
    62   31   94 1    
    63   31   95 1    
    64   32   33 am   BACKBONE|DICT|INTERRES
    65   32   96 1    
    66   33   34 2    
    67   33   35 1    
    68   35   36 1    
    69   35   37 1    
    70   35   97 1    
    71   36   98 1    
    72   36   99 1    
    73   36  100 1    
    74   37   38 am   BACKBONE|DICT|INTERRES
    75   37  101 1    
    76   38   39 2    
    77   38   40 1    
    78   40   41 1    
    79   40   42 1    
    80   40  102 1    
    81   41  103 1    
    82   41  104 1    
    83   41  105 1    
    84   42   43 am   BACKBONE|DICT|INTERRES
    85   42  106 1    
    86   43   44 2    
    87   43   45 1    
    88   45   46 1    
    89   45   49 1    
    90   45  107 1    
    91   46   47 1    
    92   46  108 1    
    93   46  109 1    
    94   47   48 1    
    95   48  110 1    
    96   48  111 1    
    97   49   50 am   BACKBONE|DICT|INTERRES
    98   49  112 1    
    99   50   51 2    
   100   50   52 1    
   101   52   53 1    
   102   52   54 1    
   103   52  113 1    
   104   53  114 1    
   105   53  115 1    
   106   53  116 1    
   107   54   55 am   BACKBONE|DICT|INTERRES
   108   54  117 1    
   109   55   56 2    
   110   55   57 1    
   111   57   58 1    
   112   57   59 1    
   113   57  118 1    
   114   58  119 1    
   115   58  120 1    
   116   58  121 1    
   117   59   60 am   BACKBONE|DICT|INTERRES
   118   59  122 1    
   119   60   61 2    
   120   60   62 1    
   121   62   63 1    
   122   62   64 1    
   123   62  123 1    
   124   63  124 1    
   125   63  125 1    
   126   63  126 1    
   127   64   65 am   BACKBONE|DICT|INTERRES
   128   64  127 1    
   129   65   66 2    
@<TRIPOS>SUBSTRUCTURE
     1 UNK         1 GROUP             0       ****    0 ROOT    
