@<TRIPOS>MOLECULE
3R135
127   129    1
SMALL
USER_CHARGES


@<TRIPOS>ATOM
      1 CA        -84.6994   30.4067  -74.3159 C.3       0 UNK        -0.1998 
      2 C         -83.3921   29.9777  -74.9645 C.2       0 UNK         0.4909 
      3 O         -83.1727   30.2551  -76.1439 O.2       0 UNK        -0.5240 
      4 N         -82.5215   29.3020  -74.2034 N.am      1 UNK        -0.4739 
      5 CA        -81.2262   28.7854  -74.6658 C.3       1 UNK         0.0864 
      6 C6        -80.2619   28.5154  -73.4829 C.3       11 UNK        -0.0881 
      7 S7        -80.9244   27.3609  -72.2256 S.3       11 UNK        -0.2682 
      8 C8        -80.4539   28.1846  -70.6702 C.3       11 UNK         0.0289 
      9 C9        -78.9424   28.2500  -70.5079 C.ar      11 UNK        -0.0687 
     10 C10       -78.2220   27.1004  -70.1693 C.ar      11 UNK        -0.0823 
     11 C11       -76.8281   27.1425  -70.0696 C.ar      11 UNK        -0.0830 
     12 C12       -76.1579   28.3499  -70.2854 C.ar      11 UNK        -0.1021 
     13 C13       -76.8677   29.5043  -70.6239 C.ar      11 UNK        -0.0753 
     14 C14       -78.2606   29.4519  -70.7226 C.ar      11 UNK        -0.0933 
     15 C15       -76.1268   30.8035  -70.8990 C.3       11 UNK         0.0166 
     16 S16       -76.1110   31.2272  -72.6718 S.3       11 UNK        -0.2615 
     17 C17       -75.1362   29.8714  -73.4127 C.3       11 UNK        -0.0865 
     18 CA        -73.6236   30.2109  -73.5172 C.3       10 UNK         0.0862 
     19 C         -72.8304   29.7253  -72.2777 C.2       10 UNK         0.5551 
     20 N         -72.3056   30.6388  -71.4729 N.am      10 UNK        -0.7319 
     21 O         -72.7212   28.5282  -72.0222 O.2       10 UNK        -0.5018 
     22 N         -73.0428   29.6574  -74.7449 N.am      10 UNK        -0.4509 
     23 C         -72.0459   30.2242  -75.4357 C.2       10 UNK         0.4899 
     24 O         -71.5051   31.2832  -75.1114 O.2       10 UNK        -0.4839 
     25 CA        -71.6089   29.5034  -76.7250 C.3       9 UNK         0.0222 
     26 CB        -70.3349   30.1018  -77.3604 C.3       9 UNK        -0.1966 
     27 N         -71.4895   28.0525  -76.5586 N.am      9 UNK        -0.4218 
     28 C         -70.6209   27.3780  -75.7878 C.2       9 UNK         0.5020 
     29 O         -69.7526   27.9169  -75.1002 O.2       9 UNK        -0.5274 
     30 CA        -70.7283   25.8376  -75.7715 C.3       8 UNK         0.0270 
     31 CB        -70.9811   25.3228  -74.3434 C.3       8 UNK        -0.1976 
     32 N         -71.7762   25.3227  -76.6587 N.am      8 UNK        -0.4313 
     33 C         -71.6570   25.1592  -77.9839 C.2       8 UNK         0.5041 
     34 O         -70.6058   25.3262  -78.6023 O.2       8 UNK        -0.5577 
     35 CA        -72.9374   24.7934  -78.7556 C.3       7 UNK         0.0284 
     36 CB        -73.0291   23.2744  -78.9728 C.3       7 UNK        -0.1958 
     37 N         -74.1509   25.2756  -78.0854 N.am      7 UNK        -0.4454 
     38 C         -74.5374   26.5611  -78.0630 C.2       7 UNK         0.5089 
     39 O         -73.9286   27.4634  -78.6371 O.2       7 UNK        -0.5125 
     40 CA        -75.7694   26.9143  -77.2090 C.3       6 UNK         0.0408 
     41 CB        -77.0593   26.7369  -78.0229 C.3       6 UNK        -0.1791 
     42 N         -75.8529   26.1272  -75.9761 N.am      6 UNK        -0.4762 
     43 C         -74.9461   26.1752  -74.9862 C.2       6 UNK         0.5007 
     44 O         -74.0032   26.9650  -74.9831 O.2       6 UNK        -0.5032 
     45 CA        -75.0786   25.1575  -73.8307 C.3       5 UNK         0.0783 
     46 C46       -75.7093   25.8504  -72.6024 C.3       11 UNK        -0.0857 
     47 S47       -76.0540   24.7254  -71.2045 S.3       11 UNK        -0.2512 
     48 C48       -76.0350   25.8740  -69.7869 C.3       11 UNK         0.0225 
     49 N         -75.8052   23.9447  -74.2148 N.am      5 UNK        -0.4615 
     50 C         -75.4764   23.1036  -75.2035 C.2       4 UNK         0.5053 
     51 O         -74.4542   23.2185  -75.8790 O.2       4 UNK        -0.5105 
     52 CA        -76.4849   21.9873  -75.5373 C.3       4 UNK         0.0263 
     53 CB        -75.9973   20.6432  -74.9741 C.3       4 UNK        -0.1981 
     54 N         -77.8533   22.2451  -75.0635 N.am      4 UNK        -0.4224 
     55 C         -78.6109   23.2964  -75.4097 C.2       3 UNK         0.4895 
     56 O         -78.2436   24.1834  -76.1857 O.2       3 UNK        -0.5091 
     57 CA        -79.9711   23.4048  -74.7137 C.3       3 UNK         0.0250 
     58 CB        -79.7979   23.8357  -73.2438 C.3       3 UNK        -0.1996 
     59 N         -80.7873   24.3916  -75.4125 N.am      3 UNK        -0.4254 
     60 C         -82.1219   24.4053  -75.4729 C.2       2 UNK         0.5004 
     61 O         -82.8389   23.5571  -74.9376 O.2       2 UNK        -0.5226 
     62 CA        -82.7544   25.5910  -76.2266 C.3       2 UNK         0.0269 
     63 CB        -84.2754   25.4352  -76.4143 C.3       2 UNK        -0.1926 
     64 N         -82.4937   26.8456  -75.5187 N.am      2 UNK        -0.4687 
     65 C         -81.3533   27.5477  -75.5812 C.2       1 UNK         0.5165 
     66 O         -80.4125   27.2389  -76.3138 O.2       1 UNK        -0.5079 
     67 H67       -84.8000   31.4910  -74.3563 H         1 UNK         0.0900 
     68 H68       -84.7567   30.0999  -73.2716 H         1 UNK         0.0900 
     69 H69       -85.5434   29.9659  -74.8457 H         1 UNK         0.0900 
     70 H70       -82.7480   29.0958  -73.2402 H         1 UNK         0.2959 
     71 H71       -80.7667   29.5609  -75.2834 H         1 UNK         0.1079 
     72 H72       -79.3047   28.1284  -73.8392 H         1 UNK         0.0837 
     73 H73       -80.0278   29.4671  -73.0050 H         1 UNK         0.0837 
     74 H74       -80.8847   27.6331  -69.8334 H         1 UNK         0.0685 
     75 H75       -80.8942   29.1825  -70.6389 H         1 UNK         0.0685 
     76 H76       -78.7430   26.1639  -70.0225 H         1 UNK         0.1434 
     77 H77       -75.0783   28.3843  -70.2230 H         1 UNK         0.1329 
     78 H78       -78.8089   30.3443  -70.9921 H         1 UNK         0.1335 
     79 H79       -76.6096   31.6132  -70.3501 H         1 UNK         0.0680 
     80 H80       -75.1026   30.7550  -70.5271 H         1 UNK         0.0680 
     81 H81       -75.5522   29.7198  -74.4102 H         1 UNK         0.1032 
     82 H82       -75.3151   28.9303  -72.8928 H         1 UNK         0.1032 
     83 H83       -73.5337   31.2978  -73.5789 H         1 UNK         0.0461 
     84 H84       -71.7951   30.3389  -70.6575 H         1 UNK         0.3453 
     85 H85       -72.3909   31.6221  -71.6781 H         1 UNK         0.3453 
     86 H86       -73.3630   28.7267  -75.0026 H         1 UNK         0.2984 
     87 H87       -72.4222   29.6516  -77.4369 H         1 UNK         0.0554 
     88 H88       -70.4826   31.1520  -77.6147 H         1 UNK         0.0847 
     89 H89       -70.0682   29.5817  -78.2804 H         1 UNK         0.0847 
     90 H90       -69.4801   30.0506  -76.6854 H         1 UNK         0.0847 
     91 H91       -72.1746   27.5099  -77.0675 H         1 UNK         0.3141 
     92 H92       -69.7667   25.4429  -76.1063 H         1 UNK         0.0743 
     93 H93       -70.1366   25.5560  -73.6936 H         1 UNK         0.0784 
     94 H94       -71.8620   25.7838  -73.8969 H         1 UNK         0.0784 
     95 H95       -71.1148   24.2410  -74.3233 H         1 UNK         0.0784 
     96 H96       -72.6794   25.1500  -76.2396 H         1 UNK         0.3213 
     97 H97       -72.8773   25.2702  -79.7367 H         1 UNK         0.0855 
     98 H98       -73.0420   22.7269  -78.0302 H         1 UNK         0.0814 
     99 H99       -72.1722   22.9133  -79.5431 H         1 UNK         0.0814 
    100 H100      -73.9256   23.0050  -79.5313 H         1 UNK         0.0814 
    101 H101      -74.6627   24.5987  -77.5315 H         1 UNK         0.3105 
    102 H102      -75.6881   27.9662  -76.9269 H         1 UNK         0.0547 
    103 H103      -77.0356   27.3411  -78.9307 H         1 UNK         0.0837 
    104 H104      -77.2091   25.6993  -78.3238 H         1 UNK         0.0837 
    105 H105      -77.9337   27.0466  -77.4507 H         1 UNK         0.0837 
    106 H106      -76.6128   25.4556  -75.9178 H         1 UNK         0.3020 
    107 H107      -74.0674   24.8457  -73.5624 H         1 UNK         0.1245 
    108 H108      -76.6480   26.3409  -72.8709 H         1 UNK         0.0781 
    109 H109      -75.0363   26.6354  -72.2529 H         1 UNK         0.0781 
    110 H110      -76.4485   25.3705  -68.9119 H         1 UNK         0.0836 
    111 H111      -74.9991   26.1134  -69.5414 H         1 UNK         0.0836 
    112 H112      -76.6498   23.7611  -73.6944 H         1 UNK         0.3022 
    113 H113      -76.5247   21.9097  -76.6258 H         1 UNK         0.0747 
    114 H114      -74.9929   20.4113  -75.3319 H         1 UNK         0.0793 
    115 H115      -76.6454   19.8232  -75.2839 H         1 UNK         0.0793 
    116 H116      -75.9607   20.6515  -73.8839 H         1 UNK         0.0793 
    117 H117      -78.2323   21.5729  -74.4113 H         1 UNK         0.3047 
    118 H118      -80.4587   22.4286  -74.7606 H         1 UNK         0.0822 
    119 H119      -80.7614   23.9357  -72.7436 H         1 UNK         0.0807 
    120 H120      -79.2843   24.7952  -73.1638 H         1 UNK         0.0807 
    121 H121      -79.2177   23.1059  -72.6781 H         1 UNK         0.0807 
    122 H122      -80.2624   25.1170  -75.8929 H         1 UNK         0.2946 
    123 H123      -82.2970   25.6321  -77.2181 H         1 UNK         0.1144 
    124 H124      -84.5097   24.5152  -76.9516 H         1 UNK         0.0793 
    125 H125      -84.6892   26.2612  -76.9930 H         1 UNK         0.0793 
    126 H126      -84.8009   25.3988  -75.4592 H         1 UNK         0.0793 
    127 H127      -83.1976   27.1520  -74.8631 H         1 UNK         0.2896 
@<TRIPOS>BOND
     1    1    2 1    
     2    1   67 1    
     3    1   68 1    
     4    1   69 1    
     5    2    3 2    
     6    2    4 am   BACKBONE|DICT|INTERRES
     7    4    5 1    
     8    4   70 1    
     9    5    6 1    
    10    5   65 1    
    11    5   71 1    
    12    6    7 1    
    13    6   72 1    
    14    6   73 1    
    15    7    8 1    
    16    8    9 1    
    17    8   74 1    
    18    8   75 1    
    19    9   10 ar   
    20    9   14 ar   
    21   10   11 ar   
    22   10   76 1    
    23   11   12 ar   
    24   11   48 1    
    25   12   13 ar   
    26   12   77 1    
    27   13   14 ar   
    28   13   15 1    
    29   14   78 1    
    30   15   16 1    
    31   15   79 1    
    32   15   80 1    
    33   16   17 1    
    34   17   18 1    
    35   17   81 1    
    36   17   82 1    
    37   18   19 1    
    38   18   22 1    
    39   18   83 1    
    40   19   20 am   BACKBONE|DICT|INTERRES
    41   19   21 2    
    42   20   84 1    
    43   20   85 1    
    44   22   23 am   BACKBONE|DICT|INTERRES
    45   22   86 1    
    46   23   24 2    
    47   23   25 1    
    48   25   26 1    
    49   25   27 1    
    50   25   87 1    
    51   26   88 1    
    52   26   89 1    
    53   26   90 1    
    54   27   28 am   BACKBONE|DICT|INTERRES
    55   27   91 1    
    56   28   29 2    
    57   28   30 1    
    58   30   31 1    
    59   30   32 1    
    60   30   92 1    
    61   31   93 1    
    62   31   94 1    
    63   31   95 1    
    64   32   33 am   BACKBONE|DICT|INTERRES
    65   32   96 1    
    66   33   34 2    
    67   33   35 1    
    68   35   36 1    
    69   35   37 1    
    70   35   97 1    
    71   36   98 1    
    72   36   99 1    
    73   36  100 1    
    74   37   38 am   BACKBONE|DICT|INTERRES
    75   37  101 1    
    76   38   39 2    
    77   38   40 1    
    78   40   41 1    
    79   40   42 1    
    80   40  102 1    
    81   41  103 1    
    82   41  104 1    
    83   41  105 1    
    84   42   43 am   BACKBONE|DICT|INTERRES
    85   42  106 1    
    86   43   44 2    
    87   43   45 1    
    88   45   46 1    
    89   45   49 1    
    90   45  107 1    
    91   46   47 1    
    92   46  108 1    
    93   46  109 1    
    94   47   48 1    
    95   48  110 1    
    96   48  111 1    
    97   49   50 am   BACKBONE|DICT|INTERRES
    98   49  112 1    
    99   50   51 2    
   100   50   52 1    
   101   52   53 1    
   102   52   54 1    
   103   52  113 1    
   104   53  114 1    
   105   53  115 1    
   106   53  116 1    
   107   54   55 am   BACKBONE|DICT|INTERRES
   108   54  117 1    
   109   55   56 2    
   110   55   57 1    
   111   57   58 1    
   112   57   59 1    
   113   57  118 1    
   114   58  119 1    
   115   58  120 1    
   116   58  121 1    
   117   59   60 am   BACKBONE|DICT|INTERRES
   118   59  122 1    
   119   60   61 2    
   120   60   62 1    
   121   62   63 1    
   122   62   64 1    
   123   62  123 1    
   124   63  124 1    
   125   63  125 1    
   126   63  126 1    
   127   64   65 am   BACKBONE|DICT|INTERRES
   128   64  127 1    
   129   65   66 2    
@<TRIPOS>SUBSTRUCTURE
     1 UNK         1 GROUP             0       ****    0 ROOT    
