@<TRIPOS>MOLECULE
3R135
127   129    1
SMALL
USER_CHARGES


@<TRIPOS>ATOM
      1 CA        -77.4569   28.6942  -74.8814 C.3       0 UNK        -0.1998 
      2 C         -78.4918   27.7068  -74.3695 C.2       0 UNK         0.4909 
      3 O         -78.2791   26.4967  -74.4640 O.2       0 UNK        -0.5240 
      4 N         -79.6148   28.2080  -73.8366 N.am      1 UNK        -0.4739 
      5 CA        -80.7028   27.3962  -73.2749 C.3       1 UNK         0.0864 
      6 C6        -81.7867   28.2392  -72.5561 C.3       11 UNK        -0.0881 
      7 S7        -81.1525   29.5306  -71.4309 S.3       11 UNK        -0.2682 
      8 C8        -80.3274   28.5694  -70.1194 C.3       11 UNK         0.0289 
      9 C9        -78.8538   28.3219  -70.4217 C.ar      11 UNK        -0.0687 
     10 C10       -78.3501   27.0196  -70.4950 C.ar      11 UNK        -0.0823 
     11 C11       -76.9940   26.7850  -70.7491 C.ar      11 UNK        -0.0830 
     12 C12       -76.1375   27.8809  -70.9202 C.ar      11 UNK        -0.1021 
     13 C13       -76.6285   29.1892  -70.8646 C.ar      11 UNK        -0.0753 
     14 C14       -77.9840   29.4012  -70.6019 C.ar      11 UNK        -0.0933 
     15 C15       -75.7017   30.3771  -71.0832 C.3       11 UNK         0.0166 
     16 S16       -76.0332   31.1746  -72.6849 S.3       11 UNK        -0.2615 
     17 C17       -74.7303   32.4515  -72.7582 C.3       11 UNK        -0.0865 
     18 CA        -73.6705   32.1409  -73.8501 C.3       10 UNK         0.0862 
     19 C         -72.7246   33.3527  -74.0947 C.2       10 UNK         0.5551 
     20 N         -71.4078   33.1947  -74.0308 N.am      10 UNK        -0.7319 
     21 O         -73.1941   34.4565  -74.3607 O.2       10 UNK        -0.5018 
     22 N         -72.9614   30.8839  -73.5590 N.am      10 UNK        -0.4509 
     23 C         -72.6382   29.9501  -74.4600 C.2       10 UNK         0.4899 
     24 O         -72.8636   30.0432  -75.6682 O.2       10 UNK        -0.4839 
     25 CA        -71.9434   28.7002  -73.9005 C.3       9 UNK         0.0222 
     26 CB        -72.6687   28.1424  -72.6597 C.3       9 UNK        -0.1966 
     27 N         -71.8689   27.6675  -74.9325 N.am      9 UNK        -0.4218 
     28 C         -70.9280   26.7175  -75.0000 C.2       9 UNK         0.5020 
     29 O         -70.0079   26.6185  -74.1859 O.2       9 UNK        -0.5274 
     30 CA        -71.0148   25.6815  -76.1377 C.3       8 UNK         0.0270 
     31 CB        -71.2647   24.2768  -75.5616 C.3       8 UNK        -0.1976 
     32 N         -72.0308   25.9800  -77.1546 N.am      8 UNK        -0.4313 
     33 C         -71.8778   26.9000  -78.1201 C.2       8 UNK         0.5041 
     34 O         -70.8750   27.6086  -78.2189 O.2       8 UNK        -0.5577 
     35 CA        -72.9969   27.0605  -79.1691 C.3       7 UNK         0.0284 
     36 CB        -72.5212   26.5589  -80.5434 C.3       7 UNK        -0.1958 
     37 N         -74.2498   26.3821  -78.8298 N.am      7 UNK        -0.4454 
     38 C         -75.1093   26.7874  -77.8871 C.2       7 UNK         0.5089 
     39 O         -74.9313   27.7867  -77.1907 O.2       7 UNK        -0.5125 
     40 CA        -76.3613   25.9199  -77.6452 C.3       6 UNK         0.0408 
     41 CB        -76.5528   24.7665  -78.6567 C.3       6 UNK        -0.1791 
     42 N         -76.3828   25.4067  -76.2736 N.am      6 UNK        -0.4762 
     43 C         -75.4288   24.6731  -75.6787 C.2       6 UNK         0.5007 
     44 O         -74.4145   24.2794  -76.2562 O.2       6 UNK        -0.5032 
     45 CA        -75.6312   24.3288  -74.1940 C.3       5 UNK         0.0783 
     46 C46       -75.1487   25.5018  -73.3061 C.3       11 UNK        -0.0857 
     47 S47       -74.8795   25.0276  -71.5666 S.3       11 UNK        -0.2512 
     48 C48       -76.5077   25.3340  -70.7912 C.3       11 UNK         0.0225 
     49 N         -77.0397   24.0021  -73.9634 N.am      5 UNK        -0.4615 
     50 C         -77.4977   22.7996  -73.6043 C.2       4 UNK         0.5053 
     51 O         -76.7780   21.8371  -73.3353 O.2       4 UNK        -0.5105 
     52 CA        -79.0263   22.6387  -73.5474 C.3       4 UNK         0.0263 
     53 CB        -79.6196   23.4160  -72.3612 C.3       4 UNK        -0.1981 
     54 N         -79.7053   23.0221  -74.7925 N.am      4 UNK        -0.4224 
     55 C         -79.5201   22.4105  -75.9757 C.2       3 UNK         0.4895 
     56 O         -78.7023   21.5064  -76.1511 O.2       3 UNK        -0.5091 
     57 CA        -80.4123   22.8150  -77.1651 C.3       3 UNK         0.0250 
     58 CB        -81.3155   21.6406  -77.5819 C.3       3 UNK        -0.1996 
     59 N         -81.2609   23.9752  -76.8952 N.am      3 UNK        -0.4254 
     60 C         -80.9187   25.2440  -77.1448 C.2       2 UNK         0.5004 
     61 O         -79.8418   25.5820  -77.6348 O.2       2 UNK        -0.5226 
     62 CA        -81.9406   26.3329  -76.7732 C.3       2 UNK         0.0269 
     63 CB        -83.4008   25.8332  -76.6696 C.3       2 UNK        -0.1926 
     64 N         -81.5255   27.0241  -75.5503 N.am      2 UNK        -0.4687 
     65 C         -81.3482   26.4817  -74.3351 C.2       1 UNK         0.5165 
     66 O         -81.6239   25.3150  -74.0510 O.2       1 UNK        -0.5079 
     67 H67       -77.2857   28.5413  -75.9460 H         1 UNK         0.0900 
     68 H68       -76.5104   28.5521  -74.3603 H         1 UNK         0.0900 
     69 H69       -77.7734   29.7263  -74.7342 H         1 UNK         0.0900 
     70 H70       -79.7257   29.2079  -73.7451 H         1 UNK         0.2959 
     71 H71       -80.2512   26.7364  -72.5342 H         1 UNK         0.1079 
     72 H72       -82.4178   28.7478  -73.2878 H         1 UNK         0.0837 
     73 H73       -82.4553   27.5877  -71.9897 H         1 UNK         0.0837 
     74 H74       -80.3978   29.1278  -69.1850 H         1 UNK         0.0685 
     75 H75       -80.8637   27.6333  -69.9568 H         1 UNK         0.0685 
     76 H76       -79.0165   26.1812  -70.3441 H         1 UNK         0.1434 
     77 H77       -75.0845   27.7212  -71.0905 H         1 UNK         0.1329 
     78 H78       -78.3661   30.4117  -70.5501 H         1 UNK         0.1335 
     79 H79       -75.8411   31.1024  -70.2802 H         1 UNK         0.0680 
     80 H80       -74.6581   30.0629  -71.0442 H         1 UNK         0.0680 
     81 H81       -74.2586   32.5681  -71.7810 H         1 UNK         0.1032 
     82 H82       -75.2268   33.4014  -72.9657 H         1 UNK         0.1032 
     83 H83       -74.2139   32.0192  -74.7893 H         1 UNK         0.0461 
     84 H84       -70.8058   33.9860  -74.1967 H         1 UNK         0.3453 
     85 H85       -71.0113   32.2912  -73.8291 H         1 UNK         0.3453 
     86 H86       -72.7105   30.7360  -72.5933 H         1 UNK         0.2984 
     87 H87       -70.9304   28.9963  -73.6205 H         1 UNK         0.0554 
     88 H88       -72.2772   27.1694  -72.3619 H         1 UNK         0.0847 
     89 H89       -73.7347   28.0312  -72.8539 H         1 UNK         0.0847 
     90 H90       -72.5572   28.8018  -71.7991 H         1 UNK         0.0847 
     91 H91       -72.5482   27.7532  -75.6793 H         1 UNK         0.3141 
     92 H92       -70.0401   25.6669  -76.6302 H         1 UNK         0.0743 
     93 H93       -70.4313   23.9619  -74.9323 H         1 UNK         0.0784 
     94 H94       -72.1612   24.2475  -74.9420 H         1 UNK         0.0784 
     95 H95       -71.3733   23.5319  -76.3501 H         1 UNK         0.0784 
     96 H96       -72.8890   25.4388  -77.1113 H         1 UNK         0.3213 
     97 H97       -73.2033   28.1302  -79.2508 H         1 UNK         0.0855 
     98 H98       -71.6109   27.0738  -80.8543 H         1 UNK         0.0814 
     99 H99       -73.2702   26.7398  -81.3145 H         1 UNK         0.0814 
    100 H100      -72.3014   25.4907  -80.5297 H         1 UNK         0.0814 
    101 H101      -74.4577   25.5317  -79.3331 H         1 UNK         0.3105 
    102 H102      -77.2191   26.5872  -77.7381 H         1 UNK         0.0547 
    103 H103      -76.6179   25.1430  -79.6783 H         1 UNK         0.0837 
    104 H104      -75.7449   24.0353  -78.6167 H         1 UNK         0.0837 
    105 H105      -77.4825   24.2331  -78.4588 H         1 UNK         0.0837 
    106 H106      -77.1526   25.7447  -75.6998 H         1 UNK         0.3020 
    107 H107      -74.9996   23.4607  -73.9909 H         1 UNK         0.1245 
    108 H108      -75.8338   26.3482  -73.3588 H         1 UNK         0.0781 
    109 H109      -74.1876   25.8698  -73.6693 H         1 UNK         0.0781 
    110 H110      -76.4629   24.9651  -69.7658 H         1 UNK         0.0836 
    111 H111      -77.2476   24.7188  -71.2995 H         1 UNK         0.0836 
    112 H112      -77.7008   24.7538  -74.1444 H         1 UNK         0.3022 
    113 H113      -79.2346   21.5792  -73.3835 H         1 UNK         0.0747 
    114 H114      -80.6934   23.2489  -72.2743 H         1 UNK         0.0793 
    115 H115      -79.1666   23.0991  -71.4209 H         1 UNK         0.0793 
    116 H116      -79.4555   24.4886  -72.4604 H         1 UNK         0.0793 
    117 H117      -80.3913   23.7666  -74.7248 H         1 UNK         0.3047 
    118 H118      -79.7470   23.0392  -78.0018 H         1 UNK         0.0822 
    119 H119      -81.9154   21.8927  -78.4566 H         1 UNK         0.0807 
    120 H120      -81.9953   21.3489  -76.7803 H         1 UNK         0.0807 
    121 H121      -80.7231   20.7622  -77.8423 H         1 UNK         0.0807 
    122 H122      -82.1530   23.7971  -76.4559 H         1 UNK         0.2946 
    123 H123      -81.9035   27.0680  -77.5792 H         1 UNK         0.1144 
    124 H124      -83.7097   25.3355  -77.5899 H         1 UNK         0.0793 
    125 H125      -84.0849   26.6676  -76.5149 H         1 UNK         0.0793 
    126 H126      -83.5532   25.1325  -75.8486 H         1 UNK         0.0793 
    127 H127      -81.2143   27.9774  -75.6755 H         1 UNK         0.2896 
@<TRIPOS>BOND
     1    1    2 1    
     2    1   67 1    
     3    1   68 1    
     4    1   69 1    
     5    2    3 2    
     6    2    4 am   BACKBONE|DICT|INTERRES
     7    4    5 1    
     8    4   70 1    
     9    5    6 1    
    10    5   65 1    
    11    5   71 1    
    12    6    7 1    
    13    6   72 1    
    14    6   73 1    
    15    7    8 1    
    16    8    9 1    
    17    8   74 1    
    18    8   75 1    
    19    9   10 ar   
    20    9   14 ar   
    21   10   11 ar   
    22   10   76 1    
    23   11   12 ar   
    24   11   48 1    
    25   12   13 ar   
    26   12   77 1    
    27   13   14 ar   
    28   13   15 1    
    29   14   78 1    
    30   15   16 1    
    31   15   79 1    
    32   15   80 1    
    33   16   17 1    
    34   17   18 1    
    35   17   81 1    
    36   17   82 1    
    37   18   19 1    
    38   18   22 1    
    39   18   83 1    
    40   19   20 am   BACKBONE|DICT|INTERRES
    41   19   21 2    
    42   20   84 1    
    43   20   85 1    
    44   22   23 am   BACKBONE|DICT|INTERRES
    45   22   86 1    
    46   23   24 2    
    47   23   25 1    
    48   25   26 1    
    49   25   27 1    
    50   25   87 1    
    51   26   88 1    
    52   26   89 1    
    53   26   90 1    
    54   27   28 am   BACKBONE|DICT|INTERRES
    55   27   91 1    
    56   28   29 2    
    57   28   30 1    
    58   30   31 1    
    59   30   32 1    
    60   30   92 1    
    61   31   93 1    
    62   31   94 1    
    63   31   95 1    
    64   32   33 am   BACKBONE|DICT|INTERRES
    65   32   96 1    
    66   33   34 2    
    67   33   35 1    
    68   35   36 1    
    69   35   37 1    
    70   35   97 1    
    71   36   98 1    
    72   36   99 1    
    73   36  100 1    
    74   37   38 am   BACKBONE|DICT|INTERRES
    75   37  101 1    
    76   38   39 2    
    77   38   40 1    
    78   40   41 1    
    79   40   42 1    
    80   40  102 1    
    81   41  103 1    
    82   41  104 1    
    83   41  105 1    
    84   42   43 am   BACKBONE|DICT|INTERRES
    85   42  106 1    
    86   43   44 2    
    87   43   45 1    
    88   45   46 1    
    89   45   49 1    
    90   45  107 1    
    91   46   47 1    
    92   46  108 1    
    93   46  109 1    
    94   47   48 1    
    95   48  110 1    
    96   48  111 1    
    97   49   50 am   BACKBONE|DICT|INTERRES
    98   49  112 1    
    99   50   51 2    
   100   50   52 1    
   101   52   53 1    
   102   52   54 1    
   103   52  113 1    
   104   53  114 1    
   105   53  115 1    
   106   53  116 1    
   107   54   55 am   BACKBONE|DICT|INTERRES
   108   54  117 1    
   109   55   56 2    
   110   55   57 1    
   111   57   58 1    
   112   57   59 1    
   113   57  118 1    
   114   58  119 1    
   115   58  120 1    
   116   58  121 1    
   117   59   60 am   BACKBONE|DICT|INTERRES
   118   59  122 1    
   119   60   61 2    
   120   60   62 1    
   121   62   63 1    
   122   62   64 1    
   123   62  123 1    
   124   63  124 1    
   125   63  125 1    
   126   63  126 1    
   127   64   65 am   BACKBONE|DICT|INTERRES
   128   64  127 1    
   129   65   66 2    
@<TRIPOS>SUBSTRUCTURE
     1 UNK         1 GROUP             0       ****    0 ROOT    
