@<TRIPOS>MOLECULE
3R135
127   129    1
SMALL
USER_CHARGES


@<TRIPOS>ATOM
      1 CA        -83.3191   22.6610  -69.7675 C.3       0 UNK        -0.1998 
      2 C         -83.3105   23.8996  -70.6502 C.2       0 UNK         0.4909 
      3 O         -84.3754   24.4091  -70.9998 O.2       0 UNK        -0.5240 
      4 N         -82.1165   24.3887  -71.0106 N.am      1 UNK        -0.4739 
      5 CA        -81.9140   25.5732  -71.8563 C.3       1 UNK         0.0864 
      6 C6        -80.4462   26.0540  -71.8261 C.3       11 UNK        -0.0881 
      7 S7        -79.9319   26.6305  -70.1752 S.3       11 UNK        -0.2682 
      8 C8        -80.0939   28.4372  -70.3504 C.3       11 UNK         0.0289 
      9 C9        -79.0243   29.0244  -71.2616 C.ar      11 UNK        -0.0687 
     10 C10       -79.3450   29.4443  -72.5574 C.ar      11 UNK        -0.0823 
     11 C11       -78.3692   29.9850  -73.4023 C.ar      11 UNK        -0.0830 
     12 C12       -77.0561   30.1050  -72.9234 C.ar      11 UNK        -0.1021 
     13 C13       -76.7261   29.7035  -71.6263 C.ar      11 UNK        -0.0753 
     14 C14       -77.7126   29.1608  -70.8003 C.ar      11 UNK        -0.0933 
     15 C15       -75.3033   29.8714  -71.1193 C.3       11 UNK         0.0166 
     16 S16       -74.2567   28.4884  -71.6539 S.3       11 UNK        -0.2615 
     17 C17       -72.6076   29.0945  -71.1575 C.3       11 UNK        -0.0865 
     18 CA        -71.9093   29.9398  -72.2568 C.3       10 UNK         0.0862 
     19 C         -70.4873   30.3561  -71.7894 C.2       10 UNK         0.5551 
     20 N         -70.3347   31.5648  -71.2659 N.am      10 UNK        -0.7319 
     21 O         -69.5397   29.5752  -71.8495 O.2       10 UNK        -0.5018 
     22 N         -71.9282   29.2389  -73.5474 N.am      10 UNK        -0.4509 
     23 C         -71.4187   29.6585  -74.7121 C.2       10 UNK         0.4899 
     24 O         -70.8433   30.7368  -74.8650 O.2       10 UNK        -0.4839 
     25 CA        -71.6451   28.7372  -75.9286 C.3       9 UNK         0.0222 
     26 CB        -70.4886   28.7862  -76.9490 C.3       9 UNK        -0.1966 
     27 N         -71.9937   27.3563  -75.5653 N.am      9 UNK        -0.4218 
     28 C         -71.2087   26.4398  -74.9769 C.2       9 UNK         0.5020 
     29 O         -70.0211   26.6146  -74.7050 O.2       9 UNK        -0.5274 
     30 CA        -71.8653   25.1020  -74.6104 C.3       8 UNK         0.0270 
     31 CB        -72.5167   25.1872  -73.2187 C.3       8 UNK        -0.1976 
     32 N         -72.8742   24.7091  -75.5978 N.am      8 UNK        -0.4313 
     33 C         -72.7101   23.7344  -76.5006 C.2       8 UNK         0.5041 
     34 O         -71.6945   23.0428  -76.5910 O.2       8 UNK        -0.5577 
     35 CA        -73.8784   23.4683  -77.4622 C.3       7 UNK         0.0284 
     36 CB        -74.9460   22.5897  -76.7898 C.3       7 UNK        -0.1958 
     37 N         -74.5062   24.6834  -77.9836 N.am      7 UNK        -0.4454 
     38 C         -73.9463   25.5066  -78.8813 C.2       7 UNK         0.5089 
     39 O         -72.7936   25.3881  -79.2967 O.2       7 UNK        -0.5125 
     40 CA        -74.8290   26.6383  -79.4291 C.3       6 UNK         0.0408 
     41 CB        -75.8344   26.0875  -80.4541 C.3       6 UNK        -0.1791 
     42 N         -75.5551   27.3108  -78.3518 N.am      6 UNK        -0.4762 
     43 C         -75.2384   28.5157  -77.8561 C.2       6 UNK         0.5007 
     44 O         -74.3470   29.2268  -78.3200 O.2       6 UNK        -0.5032 
     45 CA        -76.0357   29.0314  -76.6339 C.3       5 UNK         0.0783 
     46 C46       -77.1007   30.0662  -77.0823 C.3       11 UNK        -0.0857 
     47 S47       -77.5087   31.2840  -75.7883 S.3       11 UNK        -0.2512 
     48 C48       -78.7960   30.4375  -74.8032 C.3       11 UNK         0.0225 
     49 N         -76.6414   27.9561  -75.8376 N.am      5 UNK        -0.4615 
     50 C         -75.9763   26.9708  -75.2213 C.2       4 UNK         0.5053 
     51 O         -74.7495   26.8692  -75.2201 O.2       4 UNK        -0.5105 
     52 CA        -76.8219   25.8541  -74.5824 C.3       4 UNK         0.0263 
     53 CB        -77.0889   26.1575  -73.1031 C.3       4 UNK        -0.1981 
     54 N         -78.0864   25.5680  -75.2831 N.am      4 UNK        -0.4224 
     55 C         -78.1646   25.1742  -76.5650 C.2       3 UNK         0.4895 
     56 O         -77.1749   25.0816  -77.2921 O.2       3 UNK        -0.5091 
     57 CA        -79.5484   24.8401  -77.1461 C.3       3 UNK         0.0250 
     58 CB        -79.4504   23.8427  -78.3220 C.3       3 UNK        -0.1996 
     59 N         -80.4841   24.3397  -76.1327 N.am      3 UNK        -0.4254 
     60 C         -81.8179   24.3571  -76.2731 C.2       2 UNK         0.5004 
     61 O         -82.4006   24.8556  -77.2365 O.2       2 UNK        -0.5226 
     62 CA        -82.6485   23.7044  -75.1552 C.3       2 UNK         0.0269 
     63 CB        -82.6114   22.1715  -75.2693 C.3       2 UNK        -0.1926 
     64 N         -82.2388   24.1073  -73.8079 N.am      2 UNK        -0.4687 
     65 C         -82.3571   25.3499  -73.3164 C.2       1 UNK         0.5165 
     66 O         -82.7936   26.3024  -73.9631 O.2       1 UNK        -0.5079 
     67 H67       -83.8270   21.8417  -70.2754 H         1 UNK         0.0900 
     68 H68       -82.3110   22.3322  -69.5163 H         1 UNK         0.0900 
     69 H69       -83.8491   22.8669  -68.8382 H         1 UNK         0.0900 
     70 H70       -81.2749   23.9488  -70.6661 H         1 UNK         0.2959 
     71 H71       -82.5438   26.3737  -71.4613 H         1 UNK         0.1079 
     72 H72       -79.7828   25.2406  -72.1213 H         1 UNK         0.0837 
     73 H73       -80.2826   26.8518  -72.5509 H         1 UNK         0.0837 
     74 H74       -81.0935   28.6780  -70.7158 H         1 UNK         0.0685 
     75 H75       -80.0133   28.8937  -69.3627 H         1 UNK         0.0685 
     76 H76       -80.3630   29.3504  -72.9111 H         1 UNK         0.1434 
     77 H77       -76.2740   30.5144  -73.5455 H         1 UNK         0.1329 
     78 H78       -77.4609   28.8405  -69.7985 H         1 UNK         0.1335 
     79 H79       -74.8897   30.8089  -71.4939 H         1 UNK         0.0680 
     80 H80       -75.2890   29.9379  -70.0303 H         1 UNK         0.0680 
     81 H81       -72.6990   29.6668  -70.2321 H         1 UNK         0.1032 
     82 H82       -71.9996   28.2219  -70.9094 H         1 UNK         0.1032 
     83 H83       -72.4948   30.8496  -72.4023 H         1 UNK         0.0461 
     84 H84       -69.4229   31.8460  -70.9402 H         1 UNK         0.3453 
     85 H85       -71.1083   32.2083  -71.2022 H         1 UNK         0.3453 
     86 H86       -72.4015   28.3482  -73.5381 H         1 UNK         0.2984 
     87 H87       -72.5278   29.1364  -76.4259 H         1 UNK         0.0554 
     88 H88       -70.3576   29.7952  -77.3417 H         1 UNK         0.0847 
     89 H89       -70.6835   28.1326  -77.7994 H         1 UNK         0.0847 
     90 H90       -69.5392   28.4881  -76.5040 H         1 UNK         0.0847 
     91 H91       -72.9823   27.1305  -75.6522 H         1 UNK         0.3141 
     92 H92       -71.0718   24.3535  -74.5585 H         1 UNK         0.0743 
     93 H93       -73.3261   25.9165  -73.1868 H         1 UNK         0.0784 
     94 H94       -72.9265   24.2236  -72.9166 H         1 UNK         0.0784 
     95 H95       -71.7864   25.4796  -72.4629 H         1 UNK         0.0784 
     96 H96       -73.7290   25.2561  -75.6113 H         1 UNK         0.3213 
     97 H97       -73.4786   22.9126  -78.3134 H         1 UNK         0.0855 
     98 H98       -75.4055   23.0892  -75.9371 H         1 UNK         0.0814 
     99 H99       -74.5121   21.6570  -76.4268 H         1 UNK         0.0814 
    100 H100      -75.7402   22.3269  -77.4888 H         1 UNK         0.0814 
    101 H101      -75.4787   24.8389  -77.7211 H         1 UNK         0.3105 
    102 H102      -74.1783   27.3429  -79.9510 H         1 UNK         0.0547 
    103 H103      -75.3197   25.5766  -81.2689 H         1 UNK         0.0837 
    104 H104      -76.5255   25.3727  -80.0060 H         1 UNK         0.0837 
    105 H105      -76.4249   26.8893  -80.8968 H         1 UNK         0.0837 
    106 H106      -76.2825   26.7698  -77.8971 H         1 UNK         0.3020 
    107 H107      -75.3043   29.5327  -75.9956 H         1 UNK         0.1245 
    108 H108      -78.0073   29.5765  -77.4422 H         1 UNK         0.0781 
    109 H109      -76.7379   30.6571  -77.9265 H         1 UNK         0.0781 
    110 H110      -79.1858   29.5814  -75.3544 H         1 UNK         0.0836 
    111 H111      -79.6315   31.1312  -74.6972 H         1 UNK         0.0836 
    112 H112      -77.6479   27.9477  -75.7899 H         1 UNK         0.3022 
    113 H113      -76.2188   24.9455  -74.6247 H         1 UNK         0.0747 
    114 H114      -77.5144   25.2954  -72.5917 H         1 UNK         0.0793 
    115 H115      -76.1638   26.4053  -72.5818 H         1 UNK         0.0793 
    116 H116      -77.7650   27.0020  -72.9780 H         1 UNK         0.0793 
    117 H117      -78.9374   25.6746  -74.7530 H         1 UNK         0.3047 
    118 H118      -79.9364   25.7836  -77.5344 H         1 UNK         0.0822 
    119 H119      -80.4230   23.6553  -78.7758 H         1 UNK         0.0807 
    120 H120      -79.0417   22.8852  -77.9993 H         1 UNK         0.0807 
    121 H121      -78.8039   24.2238  -79.1135 H         1 UNK         0.0807 
    122 H122      -80.0839   23.8835  -75.3251 H         1 UNK         0.2946 
    123 H123      -83.6835   24.0261  -75.2943 H         1 UNK         0.1144 
    124 H124      -83.2861   21.7048  -74.5514 H         1 UNK         0.0793 
    125 H125      -81.6108   21.7734  -75.0975 H         1 UNK         0.0793 
    126 H126      -82.9246   21.8470  -76.2626 H         1 UNK         0.0793 
    127 H127      -81.8874   23.3843  -73.1969 H         1 UNK         0.2896 
@<TRIPOS>BOND
     1    1    2 1    
     2    1   67 1    
     3    1   68 1    
     4    1   69 1    
     5    2    3 2    
     6    2    4 am   BACKBONE|DICT|INTERRES
     7    4    5 1    
     8    4   70 1    
     9    5    6 1    
    10    5   65 1    
    11    5   71 1    
    12    6    7 1    
    13    6   72 1    
    14    6   73 1    
    15    7    8 1    
    16    8    9 1    
    17    8   74 1    
    18    8   75 1    
    19    9   10 ar   
    20    9   14 ar   
    21   10   11 ar   
    22   10   76 1    
    23   11   12 ar   
    24   11   48 1    
    25   12   13 ar   
    26   12   77 1    
    27   13   14 ar   
    28   13   15 1    
    29   14   78 1    
    30   15   16 1    
    31   15   79 1    
    32   15   80 1    
    33   16   17 1    
    34   17   18 1    
    35   17   81 1    
    36   17   82 1    
    37   18   19 1    
    38   18   22 1    
    39   18   83 1    
    40   19   20 am   BACKBONE|DICT|INTERRES
    41   19   21 2    
    42   20   84 1    
    43   20   85 1    
    44   22   23 am   BACKBONE|DICT|INTERRES
    45   22   86 1    
    46   23   24 2    
    47   23   25 1    
    48   25   26 1    
    49   25   27 1    
    50   25   87 1    
    51   26   88 1    
    52   26   89 1    
    53   26   90 1    
    54   27   28 am   BACKBONE|DICT|INTERRES
    55   27   91 1    
    56   28   29 2    
    57   28   30 1    
    58   30   31 1    
    59   30   32 1    
    60   30   92 1    
    61   31   93 1    
    62   31   94 1    
    63   31   95 1    
    64   32   33 am   BACKBONE|DICT|INTERRES
    65   32   96 1    
    66   33   34 2    
    67   33   35 1    
    68   35   36 1    
    69   35   37 1    
    70   35   97 1    
    71   36   98 1    
    72   36   99 1    
    73   36  100 1    
    74   37   38 am   BACKBONE|DICT|INTERRES
    75   37  101 1    
    76   38   39 2    
    77   38   40 1    
    78   40   41 1    
    79   40   42 1    
    80   40  102 1    
    81   41  103 1    
    82   41  104 1    
    83   41  105 1    
    84   42   43 am   BACKBONE|DICT|INTERRES
    85   42  106 1    
    86   43   44 2    
    87   43   45 1    
    88   45   46 1    
    89   45   49 1    
    90   45  107 1    
    91   46   47 1    
    92   46  108 1    
    93   46  109 1    
    94   47   48 1    
    95   48  110 1    
    96   48  111 1    
    97   49   50 am   BACKBONE|DICT|INTERRES
    98   49  112 1    
    99   50   51 2    
   100   50   52 1    
   101   52   53 1    
   102   52   54 1    
   103   52  113 1    
   104   53  114 1    
   105   53  115 1    
   106   53  116 1    
   107   54   55 am   BACKBONE|DICT|INTERRES
   108   54  117 1    
   109   55   56 2    
   110   55   57 1    
   111   57   58 1    
   112   57   59 1    
   113   57  118 1    
   114   58  119 1    
   115   58  120 1    
   116   58  121 1    
   117   59   60 am   BACKBONE|DICT|INTERRES
   118   59  122 1    
   119   60   61 2    
   120   60   62 1    
   121   62   63 1    
   122   62   64 1    
   123   62  123 1    
   124   63  124 1    
   125   63  125 1    
   126   63  126 1    
   127   64   65 am   BACKBONE|DICT|INTERRES
   128   64  127 1    
   129   65   66 2    
@<TRIPOS>SUBSTRUCTURE
     1 UNK         1 GROUP             0       ****    0 ROOT    
