@<TRIPOS>MOLECULE
3R135
127   129    1
SMALL
USER_CHARGES


@<TRIPOS>ATOM
      1 CA        -78.9515   26.0768  -71.6147 C.3       0 UNK        -0.1998 
      2 C         -79.4631   26.2869  -73.0317 C.2       0 UNK         0.4909 
      3 O         -80.4002   25.6051  -73.4522 O.2       0 UNK        -0.5240 
      4 N         -78.8404   27.2207  -73.7639 N.am      1 UNK        -0.4739 
      5 CA        -79.1714   27.6397  -75.1330 C.3       1 UNK         0.0864 
      6 C6        -78.1546   28.6775  -75.6632 C.3       11 UNK        -0.0881 
      7 S7        -78.1353   30.2051  -74.6677 S.3       11 UNK        -0.2682 
      8 C8        -76.4015   30.2758  -74.1238 C.3       11 UNK         0.0289 
      9 C9        -76.1401   29.4049  -72.9037 C.ar      11 UNK        -0.0687 
     10 C10       -75.5427   28.1480  -73.0386 C.ar      11 UNK        -0.0823 
     11 C11       -75.2244   27.3786  -71.9083 C.ar      11 UNK        -0.0830 
     12 C12       -75.5061   27.8964  -70.6418 C.ar      11 UNK        -0.1021 
     13 C13       -76.0917   29.1560  -70.4925 C.ar      11 UNK        -0.0753 
     14 C14       -76.4311   29.8943  -71.6283 C.ar      11 UNK        -0.0933 
     15 C15       -76.3038   29.7347  -69.0995 C.3       11 UNK         0.0166 
     16 S16       -75.2979   31.2295  -68.7874 S.3       11 UNK        -0.2615 
     17 C17       -73.6498   30.7811  -69.4474 C.3       11 UNK        -0.0865 
     18 CA        -73.3683   31.4951  -70.8031 C.3       10 UNK         0.0862 
     19 C         -72.5970   32.8319  -70.6136 C.2       10 UNK         0.5551 
     20 N         -73.2647   33.8632  -70.1157 N.am      10 UNK        -0.7319 
     21 O         -71.3999   32.9343  -70.8773 O.2       10 UNK        -0.5018 
     22 N         -72.7319   30.5950  -71.7790 N.am      10 UNK        -0.4509 
     23 C         -72.7485   30.7944  -73.1043 C.2       10 UNK         0.4899 
     24 O         -73.3441   31.7344  -73.6362 O.2       10 UNK        -0.4839 
     25 CA        -71.9755   29.7893  -73.9862 C.3       9 UNK         0.0222 
     26 CB        -71.7602   28.4121  -73.3287 C.3       9 UNK        -0.1966 
     27 N         -72.6569   29.6026  -75.2700 N.am      9 UNK        -0.4218 
     28 C         -72.4515   30.3393  -76.3684 C.2       9 UNK         0.5020 
     29 O         -71.5689   31.1951  -76.4666 O.2       9 UNK        -0.5274 
     30 CA        -73.3774   30.0469  -77.5651 C.3       8 UNK         0.0270 
     31 CB        -73.1273   30.9907  -78.7573 C.3       8 UNK        -0.1976 
     32 N         -73.2422   28.6615  -78.0206 N.am      8 UNK        -0.4313 
     33 C         -73.8731   27.6133  -77.4816 C.2       8 UNK         0.5041 
     34 O         -74.6398   27.6965  -76.5180 O.2       8 UNK        -0.5577 
     35 CA        -73.5712   26.2437  -78.0951 C.3       7 UNK         0.0284 
     36 CB        -72.3505   25.5995  -77.4136 C.3       7 UNK        -0.1958 
     37 N         -74.7437   25.3963  -77.9169 N.am      7 UNK        -0.4454 
     38 C         -75.0790   24.3434  -78.6725 C.2       7 UNK         0.5089 
     39 O         -74.4144   23.9592  -79.6365 O.2       7 UNK        -0.5125 
     40 CA        -76.3810   23.6056  -78.2897 C.3       6 UNK         0.0408 
     41 CB        -76.4370   22.1577  -78.8196 C.3       6 UNK        -0.1791 
     42 N         -76.6606   23.6555  -76.8499 N.am      6 UNK        -0.4762 
     43 C         -75.9110   23.1551  -75.8552 C.2       6 UNK         0.5007 
     44 O         -74.9202   22.4424  -76.0193 O.2       6 UNK        -0.5032 
     45 CA        -76.3465   23.5434  -74.4340 C.3       5 UNK         0.0783 
     46 C46       -76.0286   25.0297  -74.1398 C.3       11 UNK        -0.0857 
     47 S47       -74.2996   25.3098  -73.6473 S.3       11 UNK        -0.2512 
     48 C48       -74.5389   26.0087  -71.9779 C.3       11 UNK         0.0225 
     49 N         -77.7713   23.2511  -74.2379 N.am      5 UNK        -0.4615 
     50 C         -78.2245   22.1391  -73.6462 C.2       4 UNK         0.5053 
     51 O         -77.4838   21.2442  -73.2368 O.2       4 UNK        -0.5105 
     52 CA        -79.7380   21.9720  -73.4417 C.3       4 UNK         0.0263 
     53 CB        -80.1148   22.2462  -71.9754 C.3       4 UNK        -0.1981 
     54 N         -80.5668   22.8206  -74.3056 N.am      4 UNK        -0.4224 
     55 C         -81.4918   22.3358  -75.1478 C.2       3 UNK         0.4895 
     56 O         -81.6417   21.1383  -75.3956 O.2       3 UNK        -0.5091 
     57 CA        -82.4408   23.3492  -75.8048 C.3       3 UNK         0.0250 
     58 CB        -83.4271   23.9271  -74.7755 C.3       3 UNK        -0.1996 
     59 N         -81.7309   24.4378  -76.4697 N.am      3 UNK        -0.4254 
     60 C         -81.0636   24.3217  -77.6266 C.2       2 UNK         0.5004 
     61 O         -80.9885   23.2771  -78.2739 O.2       2 UNK        -0.5226 
     62 CA        -80.3727   25.5886  -78.1680 C.3       2 UNK         0.0269 
     63 CB        -81.1950   26.2030  -79.3127 C.3       2 UNK        -0.1926 
     64 N         -80.1302   26.6156  -77.1476 N.am      2 UNK        -0.4687 
     65 C         -79.2749   26.4667  -76.1287 C.2       1 UNK         0.5165 
     66 O         -78.5864   25.4565  -75.9751 O.2       1 UNK        -0.5079 
     67 H67       -78.2978   26.8891  -71.2968 H         1 UNK         0.0900 
     68 H68       -79.7869   26.0251  -70.9172 H         1 UNK         0.0900 
     69 H69       -78.3919   25.1446  -71.5488 H         1 UNK         0.0900 
     70 H70       -78.0803   27.7390  -73.3451 H         1 UNK         0.2959 
     71 H71       -80.1556   28.1097  -75.0805 H         1 UNK         0.1079 
     72 H72       -78.3945   28.9685  -76.6880 H         1 UNK         0.0837 
     73 H73       -77.1544   28.2423  -75.7034 H         1 UNK         0.0837 
     74 H74       -76.1580   31.3114  -73.8811 H         1 UNK         0.0685 
     75 H75       -75.7395   30.0021  -74.9468 H         1 UNK         0.0685 
     76 H76       -75.3059   27.7917  -74.0298 H         1 UNK         0.1434 
     77 H77       -75.2404   27.3245  -69.7629 H         1 UNK         0.1329 
     78 H78       -76.8725   30.8753  -71.5166 H         1 UNK         0.1335 
     79 H79       -76.0684   28.9934  -68.3343 H         1 UNK         0.0680 
     80 H80       -77.3579   29.9833  -68.9704 H         1 UNK         0.0680 
     81 H81       -72.8920   31.0224  -68.6992 H         1 UNK         0.1032 
     82 H82       -73.5973   29.6976  -69.5542 H         1 UNK         0.1032 
     83 H83       -74.3279   31.7661  -71.2478 H         1 UNK         0.0461 
     84 H84       -74.2376   33.7727  -69.8658 H         1 UNK         0.3453 
     85 H85       -72.7862   34.7383  -69.9702 H         1 UNK         0.3453 
     86 H86       -72.1974   29.8262  -71.4050 H         1 UNK         0.2984 
     87 H87       -70.9890   30.2220  -74.1634 H         1 UNK         0.0554 
     88 H88       -71.1248   28.4825  -72.4455 H         1 UNK         0.0847 
     89 H89       -71.2684   27.7215  -74.0142 H         1 UNK         0.0847 
     90 H90       -72.7015   27.9576  -73.0275 H         1 UNK         0.0847 
     91 H91       -73.4044   28.9177  -75.3037 H         1 UNK         0.3141 
     92 H92       -74.4026   30.2134  -77.2262 H         1 UNK         0.0743 
     93 H93       -72.1181   30.8819  -79.1565 H         1 UNK         0.0784 
     94 H94       -73.8314   30.8008  -79.5677 H         1 UNK         0.0784 
     95 H95       -73.2510   32.0335  -78.4618 H         1 UNK         0.0784 
     96 H96       -72.5904   28.5014  -78.7760 H         1 UNK         0.3213 
     97 H97       -73.3762   26.3702  -79.1624 H         1 UNK         0.0855 
     98 H98       -72.5198   25.4534  -76.3457 H         1 UNK         0.0814 
     99 H99       -71.4631   26.2241  -77.5221 H         1 UNK         0.0814 
    100 H100      -72.1183   24.6278  -77.8498 H         1 UNK         0.0814 
    101 H101      -75.3519   25.6894  -77.1625 H         1 UNK         0.3105 
    102 H102      -77.1888   24.1589  -78.7698 H         1 UNK         0.0547 
    103 H103      -77.3687   21.6681  -78.5364 H         1 UNK         0.0837 
    104 H104      -75.6111   21.5542  -78.4426 H         1 UNK         0.0837 
    105 H105      -76.3804   22.1382  -79.9085 H         1 UNK         0.0837 
    106 H106      -77.4434   24.2513  -76.5799 H         1 UNK         0.3020 
    107 H107      -75.7587   22.9367  -73.7407 H         1 UNK         0.1245 
    108 H108      -76.6679   25.3781  -73.3308 H         1 UNK         0.0781 
    109 H109      -76.2511   25.6829  -74.9842 H         1 UNK         0.0781 
    110 H110      -73.5591   26.0896  -71.5054 H         1 UNK         0.0836 
    111 H111      -75.1062   25.2921  -71.3817 H         1 UNK         0.0836 
    112 H112      -78.4205   23.9309  -74.6168 H         1 UNK         0.3022 
    113 H113      -79.9435   20.9171  -73.6349 H         1 UNK         0.0747 
    114 H114      -81.1585   21.9958  -71.7848 H         1 UNK         0.0793 
    115 H115      -79.5101   21.6475  -71.2927 H         1 UNK         0.0793 
    116 H116      -79.9712   23.2928  -71.7093 H         1 UNK         0.0793 
    117 H117      -80.5318   23.8239  -74.1347 H         1 UNK         0.3047 
    118 H118      -83.0230   22.8150  -76.5593 H         1 UNK         0.0822 
    119 H119      -84.1672   24.5688  -75.2538 H         1 UNK         0.0807 
    120 H120      -82.9203   24.5149  -74.0089 H         1 UNK         0.0807 
    121 H121      -83.9717   23.1300  -74.2674 H         1 UNK         0.0807 
    122 H122      -81.7188   25.3301  -75.9977 H         1 UNK         0.2946 
    123 H123      -79.4068   25.2764  -78.5707 H         1 UNK         0.1144 
    124 H124      -80.6775   27.0498  -79.7639 H         1 UNK         0.0793 
    125 H125      -82.1711   26.5479  -78.9692 H         1 UNK         0.0793 
    126 H126      -81.3679   25.4730  -80.1050 H         1 UNK         0.0793 
    127 H127      -80.6609   27.4715  -77.2303 H         1 UNK         0.2896 
@<TRIPOS>BOND
     1    1    2 1    
     2    1   67 1    
     3    1   68 1    
     4    1   69 1    
     5    2    3 2    
     6    2    4 am   BACKBONE|DICT|INTERRES
     7    4    5 1    
     8    4   70 1    
     9    5    6 1    
    10    5   65 1    
    11    5   71 1    
    12    6    7 1    
    13    6   72 1    
    14    6   73 1    
    15    7    8 1    
    16    8    9 1    
    17    8   74 1    
    18    8   75 1    
    19    9   10 ar   
    20    9   14 ar   
    21   10   11 ar   
    22   10   76 1    
    23   11   12 ar   
    24   11   48 1    
    25   12   13 ar   
    26   12   77 1    
    27   13   14 ar   
    28   13   15 1    
    29   14   78 1    
    30   15   16 1    
    31   15   79 1    
    32   15   80 1    
    33   16   17 1    
    34   17   18 1    
    35   17   81 1    
    36   17   82 1    
    37   18   19 1    
    38   18   22 1    
    39   18   83 1    
    40   19   20 am   BACKBONE|DICT|INTERRES
    41   19   21 2    
    42   20   84 1    
    43   20   85 1    
    44   22   23 am   BACKBONE|DICT|INTERRES
    45   22   86 1    
    46   23   24 2    
    47   23   25 1    
    48   25   26 1    
    49   25   27 1    
    50   25   87 1    
    51   26   88 1    
    52   26   89 1    
    53   26   90 1    
    54   27   28 am   BACKBONE|DICT|INTERRES
    55   27   91 1    
    56   28   29 2    
    57   28   30 1    
    58   30   31 1    
    59   30   32 1    
    60   30   92 1    
    61   31   93 1    
    62   31   94 1    
    63   31   95 1    
    64   32   33 am   BACKBONE|DICT|INTERRES
    65   32   96 1    
    66   33   34 2    
    67   33   35 1    
    68   35   36 1    
    69   35   37 1    
    70   35   97 1    
    71   36   98 1    
    72   36   99 1    
    73   36  100 1    
    74   37   38 am   BACKBONE|DICT|INTERRES
    75   37  101 1    
    76   38   39 2    
    77   38   40 1    
    78   40   41 1    
    79   40   42 1    
    80   40  102 1    
    81   41  103 1    
    82   41  104 1    
    83   41  105 1    
    84   42   43 am   BACKBONE|DICT|INTERRES
    85   42  106 1    
    86   43   44 2    
    87   43   45 1    
    88   45   46 1    
    89   45   49 1    
    90   45  107 1    
    91   46   47 1    
    92   46  108 1    
    93   46  109 1    
    94   47   48 1    
    95   48  110 1    
    96   48  111 1    
    97   49   50 am   BACKBONE|DICT|INTERRES
    98   49  112 1    
    99   50   51 2    
   100   50   52 1    
   101   52   53 1    
   102   52   54 1    
   103   52  113 1    
   104   53  114 1    
   105   53  115 1    
   106   53  116 1    
   107   54   55 am   BACKBONE|DICT|INTERRES
   108   54  117 1    
   109   55   56 2    
   110   55   57 1    
   111   57   58 1    
   112   57   59 1    
   113   57  118 1    
   114   58  119 1    
   115   58  120 1    
   116   58  121 1    
   117   59   60 am   BACKBONE|DICT|INTERRES
   118   59  122 1    
   119   60   61 2    
   120   60   62 1    
   121   62   63 1    
   122   62   64 1    
   123   62  123 1    
   124   63  124 1    
   125   63  125 1    
   126   63  126 1    
   127   64   65 am   BACKBONE|DICT|INTERRES
   128   64  127 1    
   129   65   66 2    
@<TRIPOS>SUBSTRUCTURE
     1 UNK         1 GROUP             0       ****    0 ROOT    
