@<TRIPOS>MOLECULE
3R135
127   129    1
SMALL
USER_CHARGES


@<TRIPOS>ATOM
      1 CA        -80.0223   26.7733  -71.1153 C.3       0 UNK        -0.1998 
      2 C         -80.9691   27.5998  -71.9695 C.2       0 UNK         0.4909 
      3 O         -82.1399   27.7525  -71.6203 O.2       0 UNK        -0.5240 
      4 N         -80.4689   28.1279  -73.0939 N.am      1 UNK        -0.4739 
      5 CA        -81.2446   28.8965  -74.0762 C.3       1 UNK         0.0864 
      6 C6        -80.3283   29.6697  -75.0591 C.3       11 UNK        -0.0881 
      7 S7        -79.1727   28.5975  -75.9899 S.3       11 UNK        -0.2682 
      8 C8        -77.5517   29.2370  -75.4716 C.3       11 UNK         0.0289 
      9 C9        -77.2635   28.9823  -73.9992 C.ar      11 UNK        -0.0687 
     10 C10       -77.0247   27.6823  -73.5457 C.ar      11 UNK        -0.0823 
     11 C11       -76.7102   27.4439  -72.2036 C.ar      11 UNK        -0.0830 
     12 C12       -76.6538   28.5170  -71.3106 C.ar      11 UNK        -0.1021 
     13 C13       -76.9124   29.8194  -71.7480 C.ar      11 UNK        -0.0753 
     14 C14       -77.2112   30.0467  -73.0944 C.ar      11 UNK        -0.0933 
     15 C15       -76.9033   30.9776  -70.7602 C.3       11 UNK         0.0166 
     16 S16       -75.4552   32.0620  -70.9652 S.3       11 UNK        -0.2615 
     17 C17       -74.0820   30.9680  -70.4592 C.3       11 UNK        -0.0865 
     18 CA        -73.0106   30.8012  -71.5692 C.3       10 UNK         0.0862 
     19 C         -71.7850   29.9873  -71.0538 C.2       10 UNK         0.5551 
     20 N         -71.3645   28.9067  -71.7009 N.am      10 UNK        -0.7319 
     21 O         -71.1938   30.3530  -70.0406 O.2       10 UNK        -0.5018 
     22 N         -73.5947   30.2996  -72.8228 N.am      10 UNK        -0.4509 
     23 C         -73.0626   30.4839  -74.0348 C.2       10 UNK         0.4899 
     24 O         -72.0592   31.1642  -74.2602 O.2       10 UNK        -0.4839 
     25 CA        -73.7751   29.7752  -75.1974 C.3       9 UNK         0.0222 
     26 CB        -74.4525   30.7981  -76.1233 C.3       9 UNK        -0.1966 
     27 N         -72.8727   28.9329  -75.9851 N.am      9 UNK        -0.4218 
     28 C         -72.0870   27.9567  -75.5103 C.2       9 UNK         0.5020 
     29 O         -71.9901   27.6793  -74.3138 O.2       9 UNK        -0.5274 
     30 CA        -71.3023   27.1390  -76.5541 C.3       8 UNK         0.0270 
     31 CB        -70.5355   25.9580  -75.9287 C.3       8 UNK        -0.1976 
     32 N         -72.1853   26.6323  -77.6096 N.am      8 UNK        -0.4313 
     33 C         -72.5656   27.3329  -78.6879 C.2       8 UNK         0.5041 
     34 O         -72.2091   28.4938  -78.8949 O.2       8 UNK        -0.5577 
     35 CA        -73.5183   26.6561  -79.6898 C.3       7 UNK         0.0284 
     36 CB        -72.7220   26.0208  -80.8410 C.3       7 UNK        -0.1958 
     37 N         -74.3870   25.6435  -79.0864 N.am      7 UNK        -0.4454 
     38 C         -75.3652   25.9004  -78.2075 C.2       7 UNK         0.5089 
     39 O         -75.6601   27.0323  -77.8244 O.2       7 UNK        -0.5125 
     40 CA        -76.1363   24.6944  -77.6368 C.3       6 UNK         0.0408 
     41 CB        -75.9634   23.3868  -78.4414 C.3       6 UNK        -0.1791 
     42 N         -75.8126   24.4674  -76.2268 N.am      6 UNK        -0.4762 
     43 C         -74.5964   24.2754  -75.6850 C.2       6 UNK         0.5007 
     44 O         -73.5461   24.2610  -76.3294 O.2       6 UNK        -0.5032 
     45 CA        -74.5588   24.0738  -74.1555 C.3       5 UNK         0.0783 
     46 C46       -74.3306   25.4450  -73.4625 C.3       11 UNK        -0.0857 
     47 S47       -74.7345   25.5234  -71.6835 S.3       11 UNK        -0.2512 
     48 C48       -76.4898   26.0233  -71.7025 C.3       11 UNK         0.0225 
     49 N         -75.7623   23.3783  -73.6907 N.am      5 UNK        -0.4615 
     50 C         -76.0508   22.0929  -73.9190 C.2       4 UNK         0.5053 
     51 O         -75.2900   21.3053  -74.4812 O.2       4 UNK        -0.5105 
     52 CA        -77.4395   21.6124  -73.4673 C.3       4 UNK         0.0263 
     53 CB        -77.8368   22.1282  -72.0662 C.3       4 UNK        -0.1981 
     54 N         -78.4793   21.9066  -74.4614 N.am      4 UNK        -0.4224 
     55 C         -78.8820   23.1034  -74.9166 C.2       3 UNK         0.4895 
     56 O         -78.4141   24.1809  -74.5377 O.2       3 UNK        -0.5091 
     57 CA        -79.9984   23.1128  -75.9727 C.3       3 UNK         0.0250 
     58 CB        -80.7009   21.7491  -76.1743 C.3       3 UNK        -0.1996 
     59 N         -80.9678   24.1399  -75.5990 N.am      3 UNK        -0.4254 
     60 C         -81.8446   24.7235  -76.4256 C.2       2 UNK         0.5004 
     61 O         -81.9452   24.4585  -77.6240 O.2       2 UNK        -0.5226 
     62 CA        -82.7496   25.7977  -75.8135 C.3       2 UNK         0.0269 
     63 CB        -83.8526   25.1746  -74.9379 C.3       2 UNK        -0.1926 
     64 N         -81.9550   26.7512  -75.0414 N.am      2 UNK        -0.4687 
     65 C         -82.2780   28.0342  -74.8354 C.2       1 UNK         0.5165 
     66 O         -83.3307   28.5459  -75.2208 O.2       1 UNK        -0.5079 
     67 H67       -79.3560   27.4243  -70.5501 H         1 UNK         0.0900 
     68 H68       -79.4230   26.1094  -71.7370 H         1 UNK         0.0900 
     69 H69       -80.5784   26.1577  -70.4087 H         1 UNK         0.0900 
     70 H70       -79.4907   28.0018  -73.3187 H         1 UNK         0.2959 
     71 H71       -81.8216   29.6383  -73.5191 H         1 UNK         0.1079 
     72 H72       -80.9278   30.2325  -75.7774 H         1 UNK         0.0837 
     73 H73       -79.7639   30.4229  -74.5082 H         1 UNK         0.0837 
     74 H74       -76.7813   28.7516  -76.0713 H         1 UNK         0.0685 
     75 H75       -77.4960   30.3013  -75.7045 H         1 UNK         0.0685 
     76 H76       -77.0859   26.8579  -74.2441 H         1 UNK         0.1434 
     77 H77       -76.4280   28.3331  -70.2689 H         1 UNK         0.1329 
     78 H78       -77.4020   31.0557  -73.4341 H         1 UNK         0.1335 
     79 H79       -77.8074   31.5718  -70.9005 H         1 UNK         0.0680 
     80 H80       -76.9373   30.6135  -69.7320 H         1 UNK         0.0680 
     81 H81       -74.4663   29.9940  -70.1535 H         1 UNK         0.1032 
     82 H82       -73.6356   31.4041  -69.5635 H         1 UNK         0.1032 
     83 H83       -72.6199   31.7995  -71.7763 H         1 UNK         0.0461 
     84 H84       -70.5691   28.4031  -71.3437 H         1 UNK         0.3453 
     85 H85       -71.8037   28.5968  -72.5623 H         1 UNK         0.3453 
     86 H86       -74.4254   29.7328  -72.7260 H         1 UNK         0.2984 
     87 H87       -74.5423   29.1152  -74.7901 H         1 UNK         0.0554 
     88 H88       -75.0049   30.3071  -76.9248 H         1 UNK         0.0847 
     89 H89       -73.7247   31.4691  -76.5816 H         1 UNK         0.0847 
     90 H90       -75.1604   31.4158  -75.5691 H         1 UNK         0.0847 
     91 H91       -72.8530   29.0896  -76.9868 H         1 UNK         0.3141 
     92 H92       -70.5633   27.8106  -76.9963 H         1 UNK         0.0743 
     93 H93       -69.8174   26.3089  -75.1863 H         1 UNK         0.0784 
     94 H94       -71.2062   25.2599  -75.4269 H         1 UNK         0.0784 
     95 H95       -69.9761   25.4036  -76.6823 H         1 UNK         0.0784 
     96 H96       -72.5948   25.7167  -77.4490 H         1 UNK         0.3213 
     97 H97       -74.1574   27.4373  -80.1075 H         1 UNK         0.0855 
     98 H98       -72.0850   26.7605  -81.3283 H         1 UNK         0.0814 
     99 H99       -73.3838   25.6133  -81.6055 H         1 UNK         0.0814 
    100 H100      -72.0753   25.2156  -80.4900 H         1 UNK         0.0814 
    101 H101      -74.1989   24.6802  -79.3231 H         1 UNK         0.3105 
    102 H102      -77.1931   24.9643  -77.6711 H         1 UNK         0.0547 
    103 H103      -76.2260   23.5301  -79.4905 H         1 UNK         0.0837 
    104 H104      -74.9436   23.0029  -78.4000 H         1 UNK         0.0837 
    105 H105      -76.6186   22.6059  -78.0550 H         1 UNK         0.0837 
    106 H106      -76.6064   24.4793  -75.5957 H         1 UNK         0.3020 
    107 H107      -73.7038   23.4314  -73.9317 H         1 UNK         0.1245 
    108 H108      -74.8403   26.2571  -73.9787 H         1 UNK         0.0781 
    109 H109      -73.2713   25.6850  -73.5424 H         1 UNK         0.0781 
    110 H110      -76.8823   25.9313  -70.6886 H         1 UNK         0.0836 
    111 H111      -77.0712   25.3287  -72.3059 H         1 UNK         0.0836 
    112 H112      -76.4800   23.9507  -73.2726 H         1 UNK         0.3022 
    113 H113      -77.3782   20.5248  -73.4015 H         1 UNK         0.0747 
    114 H114      -78.7172   21.6029  -71.6960 H         1 UNK         0.0793 
    115 H115      -77.0362   21.9597  -71.3445 H         1 UNK         0.0793 
    116 H116      -78.0681   23.1924  -72.0566 H         1 UNK         0.0793 
    117 H117      -78.9223   21.0923  -74.8639 H         1 UNK         0.3047 
    118 H118      -79.5292   23.4059  -76.9143 H         1 UNK         0.0822 
    119 H119      -81.4806   21.8136  -76.9333 H         1 UNK         0.0807 
    120 H120      -81.1697   21.3941  -75.2554 H         1 UNK         0.0807 
    121 H121      -80.0025   20.9846  -76.5169 H         1 UNK         0.0807 
    122 H122      -80.9288   24.4265  -74.6309 H         1 UNK         0.2946 
    123 H123      -83.2239   26.3255  -76.6448 H         1 UNK         0.1144 
    124 H124      -84.5562   25.9312  -74.5902 H         1 UNK         0.0793 
    125 H125      -83.4408   24.6750  -74.0604 H         1 UNK         0.0793 
    126 H126      -84.4252   24.4347  -75.4989 H         1 UNK         0.0793 
    127 H127      -81.0351   26.4507  -74.7517 H         1 UNK         0.2896 
@<TRIPOS>BOND
     1    1    2 1    
     2    1   67 1    
     3    1   68 1    
     4    1   69 1    
     5    2    3 2    
     6    2    4 am   BACKBONE|DICT|INTERRES
     7    4    5 1    
     8    4   70 1    
     9    5    6 1    
    10    5   65 1    
    11    5   71 1    
    12    6    7 1    
    13    6   72 1    
    14    6   73 1    
    15    7    8 1    
    16    8    9 1    
    17    8   74 1    
    18    8   75 1    
    19    9   10 ar   
    20    9   14 ar   
    21   10   11 ar   
    22   10   76 1    
    23   11   12 ar   
    24   11   48 1    
    25   12   13 ar   
    26   12   77 1    
    27   13   14 ar   
    28   13   15 1    
    29   14   78 1    
    30   15   16 1    
    31   15   79 1    
    32   15   80 1    
    33   16   17 1    
    34   17   18 1    
    35   17   81 1    
    36   17   82 1    
    37   18   19 1    
    38   18   22 1    
    39   18   83 1    
    40   19   20 am   BACKBONE|DICT|INTERRES
    41   19   21 2    
    42   20   84 1    
    43   20   85 1    
    44   22   23 am   BACKBONE|DICT|INTERRES
    45   22   86 1    
    46   23   24 2    
    47   23   25 1    
    48   25   26 1    
    49   25   27 1    
    50   25   87 1    
    51   26   88 1    
    52   26   89 1    
    53   26   90 1    
    54   27   28 am   BACKBONE|DICT|INTERRES
    55   27   91 1    
    56   28   29 2    
    57   28   30 1    
    58   30   31 1    
    59   30   32 1    
    60   30   92 1    
    61   31   93 1    
    62   31   94 1    
    63   31   95 1    
    64   32   33 am   BACKBONE|DICT|INTERRES
    65   32   96 1    
    66   33   34 2    
    67   33   35 1    
    68   35   36 1    
    69   35   37 1    
    70   35   97 1    
    71   36   98 1    
    72   36   99 1    
    73   36  100 1    
    74   37   38 am   BACKBONE|DICT|INTERRES
    75   37  101 1    
    76   38   39 2    
    77   38   40 1    
    78   40   41 1    
    79   40   42 1    
    80   40  102 1    
    81   41  103 1    
    82   41  104 1    
    83   41  105 1    
    84   42   43 am   BACKBONE|DICT|INTERRES
    85   42  106 1    
    86   43   44 2    
    87   43   45 1    
    88   45   46 1    
    89   45   49 1    
    90   45  107 1    
    91   46   47 1    
    92   46  108 1    
    93   46  109 1    
    94   47   48 1    
    95   48  110 1    
    96   48  111 1    
    97   49   50 am   BACKBONE|DICT|INTERRES
    98   49  112 1    
    99   50   51 2    
   100   50   52 1    
   101   52   53 1    
   102   52   54 1    
   103   52  113 1    
   104   53  114 1    
   105   53  115 1    
   106   53  116 1    
   107   54   55 am   BACKBONE|DICT|INTERRES
   108   54  117 1    
   109   55   56 2    
   110   55   57 1    
   111   57   58 1    
   112   57   59 1    
   113   57  118 1    
   114   58  119 1    
   115   58  120 1    
   116   58  121 1    
   117   59   60 am   BACKBONE|DICT|INTERRES
   118   59  122 1    
   119   60   61 2    
   120   60   62 1    
   121   62   63 1    
   122   62   64 1    
   123   62  123 1    
   124   63  124 1    
   125   63  125 1    
   126   63  126 1    
   127   64   65 am   BACKBONE|DICT|INTERRES
   128   64  127 1    
   129   65   66 2    
@<TRIPOS>SUBSTRUCTURE
     1 UNK         1 GROUP             0       ****    0 ROOT    
