@<TRIPOS>MOLECULE
3R135
127   129    1
SMALL
USER_CHARGES


@<TRIPOS>ATOM
      1 CA        -82.3166   26.1125  -72.9479 C.3       0 UNK        -0.1998 
      2 C         -81.8806   27.3469  -73.7202 C.2       0 UNK         0.4909 
      3 O         -82.5000   27.6900  -74.7279 O.2       0 UNK        -0.5240 
      4 N         -80.8160   28.0184  -73.2623 N.am      1 UNK        -0.4739 
      5 CA        -80.2831   29.2729  -73.8188 C.3       1 UNK         0.0864 
      6 C6        -79.5153   30.0990  -72.7513 C.3       11 UNK        -0.0881 
      7 S7        -80.5102   30.3813  -71.2387 S.3       11 UNK        -0.2682 
      8 C8        -79.2576   30.4988  -69.9143 C.3       11 UNK         0.0289 
      9 C9        -78.2654   29.3436  -69.9295 C.ar      11 UNK        -0.0687 
     10 C10       -78.6976   28.0280  -69.7375 C.ar      11 UNK        -0.0823 
     11 C11       -77.7944   26.9644  -69.8352 C.ar      11 UNK        -0.0830 
     12 C12       -76.4480   27.2264  -70.1090 C.ar      11 UNK        -0.1021 
     13 C13       -76.0006   28.5401  -70.2757 C.ar      11 UNK        -0.0753 
     14 C14       -76.9124   29.5937  -70.1728 C.ar      11 UNK        -0.0933 
     15 C15       -74.5341   28.8229  -70.5682 C.3       11 UNK         0.0166 
     16 S16       -74.2080   28.9235  -72.3560 S.3       11 UNK        -0.2615 
     17 C17       -74.9940   30.5187  -72.7794 C.3       11 UNK        -0.0865 
     18 CA        -74.5636   31.0886  -74.1542 C.3       10 UNK         0.0862 
     19 C         -73.0902   31.5929  -74.1622 C.2       10 UNK         0.5551 
     20 N         -72.2199   31.0913  -75.0305 N.am      10 UNK        -0.7319 
     21 O         -72.7374   32.4693  -73.3766 O.2       10 UNK        -0.5018 
     22 N         -74.9120   30.1623  -75.2396 N.am      10 UNK        -0.4509 
     23 C         -75.1687   30.5099  -76.5032 C.2       10 UNK         0.4899 
     24 O         -75.1396   31.6694  -76.9191 O.2       10 UNK        -0.4839 
     25 CA        -75.4771   29.3498  -77.4653 C.3       9 UNK         0.0222 
     26 CB        -76.1590   29.8237  -78.7624 C.3       9 UNK        -0.1966 
     27 N         -74.2623   28.6065  -77.8050 N.am      9 UNK        -0.4218 
     28 C         -73.6569   27.7195  -77.0064 C.2       9 UNK         0.5020 
     29 O         -74.0574   27.4218  -75.8777 O.2       9 UNK        -0.5274 
     30 CA        -72.3807   27.0722  -77.5530 C.3       8 UNK         0.0270 
     31 CB        -71.1773   28.0226  -77.4254 C.3       8 UNK        -0.1976 
     32 N         -72.1262   25.8612  -76.7828 N.am      8 UNK        -0.4313 
     33 C         -71.6630   24.7026  -77.2611 C.2       8 UNK         0.5041 
     34 O         -71.3015   24.5447  -78.4285 O.2       8 UNK        -0.5577 
     35 CA        -71.5733   23.5117  -76.2827 C.3       7 UNK         0.0284 
     36 CB        -70.1030   23.1798  -75.9752 C.3       7 UNK        -0.1958 
     37 N         -72.2922   23.6970  -75.0145 N.am      7 UNK        -0.4454 
     38 C         -73.6234   23.7724  -74.8910 C.2       7 UNK         0.5089 
     39 O         -74.4016   23.7066  -75.8451 O.2       7 UNK        -0.5125 
     40 CA        -74.1725   23.9699  -73.4706 C.3       6 UNK         0.0408 
     41 CB        -73.6678   25.2799  -72.8368 C.3       6 UNK        -0.1791 
     42 N         -75.6270   23.9979  -73.5507 N.am      6 UNK        -0.4762 
     43 C         -76.4948   23.6950  -72.5801 C.2       6 UNK         0.5007 
     44 O         -76.1582   23.3394  -71.4504 O.2       6 UNK        -0.5032 
     45 CA        -77.9918   23.8113  -72.9386 C.3       5 UNK         0.0783 
     46 C46       -78.5766   25.1677  -72.4582 C.3       11 UNK        -0.0857 
     47 S47       -79.4961   25.0200  -70.8902 S.3       11 UNK        -0.2512 
     48 C48       -78.2691   25.5310  -69.6433 C.3       11 UNK         0.0225 
     49 N         -78.2186   23.6201  -74.3761 N.am      5 UNK        -0.4615 
     50 C         -78.2414   22.4272  -74.9946 C.2       4 UNK         0.5053 
     51 O         -78.1241   21.3550  -74.4016 O.2       4 UNK        -0.5105 
     52 CA        -78.4131   22.4151  -76.5243 C.3       4 UNK         0.0263 
     53 CB        -79.8842   22.1716  -76.8983 C.3       4 UNK        -0.1981 
     54 N         -77.9787   23.6870  -77.0919 N.am      4 UNK        -0.4224 
     55 C         -76.9659   23.8913  -77.9350 C.2       3 UNK         0.4895 
     56 O         -76.3915   22.9855  -78.5418 O.2       3 UNK        -0.5091 
     57 CA        -76.5120   25.3616  -78.1127 C.3       3 UNK         0.0250 
     58 CB        -75.6832   25.5601  -79.3961 C.3       3 UNK        -0.1996 
     59 N         -77.5879   26.3671  -78.0825 N.am      3 UNK        -0.4254 
     60 C         -78.3518   26.7111  -77.0339 C.2       2 UNK         0.5004 
     61 O         -78.3052   26.1413  -75.9380 O.2       2 UNK        -0.5226 
     62 CA        -79.3798   27.8288  -77.2870 C.3       2 UNK         0.0269 
     63 CB        -80.4834   27.3437  -78.2432 C.3       2 UNK        -0.1926 
     64 N         -80.0153   28.2863  -76.0513 N.am      2 UNK        -0.4687 
     65 C         -79.4410   29.0267  -75.0956 C.2       1 UNK         0.5165 
     66 O         -78.3072   29.4984  -75.1979 O.2       1 UNK        -0.5079 
     67 H67       -81.8466   25.2206  -73.3613 H         1 UNK         0.0900 
     68 H68       -83.3974   25.9885  -73.0092 H         1 UNK         0.0900 
     69 H69       -82.0510   26.1898  -71.8941 H         1 UNK         0.0900 
     70 H70       -80.3393   27.6835  -72.4371 H         1 UNK         0.2959 
     71 H71       -81.1327   29.8816  -74.1367 H         1 UNK         0.1079 
     72 H72       -79.2291   31.0725  -73.1537 H         1 UNK         0.0837 
     73 H73       -78.5842   29.5906  -72.5009 H         1 UNK         0.0837 
     74 H74       -78.7406   31.4547  -70.0113 H         1 UNK         0.0685 
     75 H75       -79.7648   30.5216  -68.9489 H         1 UNK         0.0685 
     76 H76       -79.7429   27.8300  -69.5423 H         1 UNK         0.1434 
     77 H77       -75.7463   26.4077  -70.1933 H         1 UNK         0.1329 
     78 H78       -76.5710   30.6103  -70.3089 H         1 UNK         0.1335 
     79 H79       -73.9127   28.0321  -70.1453 H         1 UNK         0.0680 
     80 H80       -74.2195   29.7478  -70.0823 H         1 UNK         0.0680 
     81 H81       -74.7924   31.2444  -71.9895 H         1 UNK         0.1032 
     82 H82       -76.0750   30.3713  -72.7816 H         1 UNK         0.1032 
     83 H83       -75.1636   31.9877  -74.3075 H         1 UNK         0.0461 
     84 H84       -72.5101   30.3759  -75.6753 H         1 UNK         0.3453 
     85 H85       -71.2706   31.4288  -75.0331 H         1 UNK         0.3453 
     86 H86       -74.8761   29.1744  -75.0110 H         1 UNK         0.2984 
     87 H87       -76.1678   28.6785  -76.9525 H         1 UNK         0.0554 
     88 H88       -76.4398   28.9831  -79.3962 H         1 UNK         0.0847 
     89 H89       -75.5118   30.4804  -79.3451 H         1 UNK         0.0847 
     90 H90       -77.0700   30.3810  -78.5402 H         1 UNK         0.0847 
     91 H91       -73.8394   28.8248  -78.6961 H         1 UNK         0.3141 
     92 H92       -72.5460   26.8195  -78.6028 H         1 UNK         0.0743 
     93 H93       -70.9957   28.3056  -76.3875 H         1 UNK         0.0784 
     94 H94       -70.2676   27.5587  -77.8074 H         1 UNK         0.0784 
     95 H95       -71.3343   28.9400  -77.9939 H         1 UNK         0.0784 
     96 H96       -72.4918   25.8914  -75.8393 H         1 UNK         0.3213 
     97 H97       -72.0168   22.6530  -76.7918 H         1 UNK         0.0855 
     98 H98       -69.6057   23.9976  -75.4521 H         1 UNK         0.0814 
     99 H99       -69.5435   22.9939  -76.8932 H         1 UNK         0.0814 
    100 H100      -70.0166   22.2833  -75.3609 H         1 UNK         0.0814 
    101 H101      -71.7241   23.7577  -74.1814 H         1 UNK         0.3105 
    102 H102      -73.8587   23.1183  -72.8637 H         1 UNK         0.0547 
    103 H103      -72.5840   25.2815  -72.7203 H         1 UNK         0.0837 
    104 H104      -73.9335   26.1432  -73.4477 H         1 UNK         0.0837 
    105 H105      -74.0936   25.4338  -71.8455 H         1 UNK         0.0837 
    106 H106      -75.9771   24.2021  -74.4788 H         1 UNK         0.3020 
    107 H107      -78.5028   22.9971  -72.4187 H         1 UNK         0.1245 
    108 H108      -79.2948   25.5441  -73.1874 H         1 UNK         0.0781 
    109 H109      -77.8195   25.9519  -72.3930 H         1 UNK         0.0781 
    110 H110      -77.4300   24.8348  -69.6594 H         1 UNK         0.0836 
    111 H111      -78.7180   25.4387  -68.6534 H         1 UNK         0.0836 
    112 H112      -78.3123   24.4742  -74.9154 H         1 UNK         0.3022 
    113 H113      -77.8067   21.5972  -76.9192 H         1 UNK         0.0747 
    114 H114      -80.0139   22.1281  -77.9798 H         1 UNK         0.0793 
    115 H115      -80.2390   21.2240  -76.4905 H         1 UNK         0.0793 
    116 H116      -80.5352   22.9583  -76.5143 H         1 UNK         0.0793 
    117 H117      -78.3534   24.5267  -76.6580 H         1 UNK         0.3047 
    118 H118      -75.8576   25.5743  -77.2648 H         1 UNK         0.0822 
    119 H119      -75.3462   26.5902  -79.5035 H         1 UNK         0.0807 
    120 H120      -76.2557   25.3004  -80.2872 H         1 UNK         0.0807 
    121 H121      -74.7905   24.9327  -79.3852 H         1 UNK         0.0807 
    122 H122      -77.7515   26.8430  -78.9577 H         1 UNK         0.2946 
    123 H123      -78.8585   28.6756  -77.7382 H         1 UNK         0.1144 
    124 H124      -81.2148   28.1296  -78.4336 H         1 UNK         0.0793 
    125 H125      -81.0175   26.4833  -77.8373 H         1 UNK         0.0793 
    126 H126      -80.0756   27.0480  -79.2106 H         1 UNK         0.0793 
    127 H127      -80.9450   27.9288  -75.8524 H         1 UNK         0.2896 
@<TRIPOS>BOND
     1    1    2 1    
     2    1   67 1    
     3    1   68 1    
     4    1   69 1    
     5    2    3 2    
     6    2    4 am   BACKBONE|DICT|INTERRES
     7    4    5 1    
     8    4   70 1    
     9    5    6 1    
    10    5   65 1    
    11    5   71 1    
    12    6    7 1    
    13    6   72 1    
    14    6   73 1    
    15    7    8 1    
    16    8    9 1    
    17    8   74 1    
    18    8   75 1    
    19    9   10 ar   
    20    9   14 ar   
    21   10   11 ar   
    22   10   76 1    
    23   11   12 ar   
    24   11   48 1    
    25   12   13 ar   
    26   12   77 1    
    27   13   14 ar   
    28   13   15 1    
    29   14   78 1    
    30   15   16 1    
    31   15   79 1    
    32   15   80 1    
    33   16   17 1    
    34   17   18 1    
    35   17   81 1    
    36   17   82 1    
    37   18   19 1    
    38   18   22 1    
    39   18   83 1    
    40   19   20 am   BACKBONE|DICT|INTERRES
    41   19   21 2    
    42   20   84 1    
    43   20   85 1    
    44   22   23 am   BACKBONE|DICT|INTERRES
    45   22   86 1    
    46   23   24 2    
    47   23   25 1    
    48   25   26 1    
    49   25   27 1    
    50   25   87 1    
    51   26   88 1    
    52   26   89 1    
    53   26   90 1    
    54   27   28 am   BACKBONE|DICT|INTERRES
    55   27   91 1    
    56   28   29 2    
    57   28   30 1    
    58   30   31 1    
    59   30   32 1    
    60   30   92 1    
    61   31   93 1    
    62   31   94 1    
    63   31   95 1    
    64   32   33 am   BACKBONE|DICT|INTERRES
    65   32   96 1    
    66   33   34 2    
    67   33   35 1    
    68   35   36 1    
    69   35   37 1    
    70   35   97 1    
    71   36   98 1    
    72   36   99 1    
    73   36  100 1    
    74   37   38 am   BACKBONE|DICT|INTERRES
    75   37  101 1    
    76   38   39 2    
    77   38   40 1    
    78   40   41 1    
    79   40   42 1    
    80   40  102 1    
    81   41  103 1    
    82   41  104 1    
    83   41  105 1    
    84   42   43 am   BACKBONE|DICT|INTERRES
    85   42  106 1    
    86   43   44 2    
    87   43   45 1    
    88   45   46 1    
    89   45   49 1    
    90   45  107 1    
    91   46   47 1    
    92   46  108 1    
    93   46  109 1    
    94   47   48 1    
    95   48  110 1    
    96   48  111 1    
    97   49   50 am   BACKBONE|DICT|INTERRES
    98   49  112 1    
    99   50   51 2    
   100   50   52 1    
   101   52   53 1    
   102   52   54 1    
   103   52  113 1    
   104   53  114 1    
   105   53  115 1    
   106   53  116 1    
   107   54   55 am   BACKBONE|DICT|INTERRES
   108   54  117 1    
   109   55   56 2    
   110   55   57 1    
   111   57   58 1    
   112   57   59 1    
   113   57  118 1    
   114   58  119 1    
   115   58  120 1    
   116   58  121 1    
   117   59   60 am   BACKBONE|DICT|INTERRES
   118   59  122 1    
   119   60   61 2    
   120   60   62 1    
   121   62   63 1    
   122   62   64 1    
   123   62  123 1    
   124   63  124 1    
   125   63  125 1    
   126   63  126 1    
   127   64   65 am   BACKBONE|DICT|INTERRES
   128   64  127 1    
   129   65   66 2    
@<TRIPOS>SUBSTRUCTURE
     1 UNK         1 GROUP             0       ****    0 ROOT    
