@<TRIPOS>MOLECULE
3R135
127   129    1
SMALL
USER_CHARGES


@<TRIPOS>ATOM
      1 CA        -75.2282   26.8539  -72.8380 C.3       0 UNK        -0.1998 
      2 C         -75.6392   25.6788  -71.9707 C.2       0 UNK         0.4909 
      3 O         -74.8533   24.7538  -71.7684 O.2       0 UNK        -0.5240 
      4 N         -76.8750   25.7095  -71.4592 N.am      1 UNK        -0.4739 
      5 CA        -77.4870   24.6057  -70.7092 C.3       1 UNK         0.0864 
      6 C6        -78.6648   25.0930  -69.8276 C.3       11 UNK        -0.0881 
      7 S7        -79.9667   25.9868  -70.7546 S.3       11 UNK        -0.2682 
      8 C8        -79.7243   27.7145  -70.2258 C.3       11 UNK         0.0289 
      9 C9        -79.5447   28.6529  -71.4113 C.ar      11 UNK        -0.0687 
     10 C10       -80.6013   28.8619  -72.3046 C.ar      11 UNK        -0.0823 
     11 C11       -80.4698   29.7621  -73.3657 C.ar      11 UNK        -0.0830 
     12 C12       -79.2690   30.4612  -73.5250 C.ar      11 UNK        -0.1021 
     13 C13       -78.2047   30.2628  -72.6405 C.ar      11 UNK        -0.0753 
     14 C14       -78.3447   29.3512  -71.5892 C.ar      11 UNK        -0.0933 
     15 C15       -76.9220   31.0656  -72.8056 C.3       11 UNK         0.0166 
     16 S16       -75.6890   30.1521  -73.7756 S.3       11 UNK        -0.2615 
     17 C17       -74.5958   31.5071  -74.3134 C.3       11 UNK        -0.0865 
     18 CA        -73.2999   30.9859  -74.9943 C.3       10 UNK         0.0862 
     19 C         -72.5511   32.1149  -75.7623 C.2       10 UNK         0.5551 
     20 N         -71.2342   32.2410  -75.6441 N.am      10 UNK        -0.7319 
     21 O         -73.1698   32.8830  -76.4948 O.2       10 UNK        -0.5018 
     22 N         -72.4322   30.2748  -74.0367 N.am      10 UNK        -0.4509 
     23 C         -72.1242   28.9756  -74.0891 C.2       10 UNK         0.4899 
     24 O         -72.5692   28.1935  -74.9327 O.2       10 UNK        -0.4839 
     25 CA        -71.1647   28.4667  -72.9992 C.3       9 UNK         0.0222 
     26 CB        -71.8486   28.4584  -71.6205 C.3       9 UNK        -0.1966 
     27 N         -70.7354   27.1051  -73.3136 N.am      9 UNK        -0.4218 
     28 C         -69.5681   26.7551  -73.8693 C.2       9 UNK         0.5020 
     29 O         -68.6253   27.5281  -74.0457 O.2       9 UNK        -0.5274 
     30 CA        -69.4422   25.2866  -74.3241 C.3       8 UNK         0.0270 
     31 CB        -68.8502   24.4200  -73.2005 C.3       8 UNK        -0.1976 
     32 N         -70.7299   24.7246  -74.7501 N.am      8 UNK        -0.4313 
     33 C         -71.3754   25.0902  -75.8669 C.2       8 UNK         0.5041 
     34 O         -70.8745   25.8040  -76.7381 O.2       8 UNK        -0.5577 
     35 CA        -72.8358   24.6435  -76.0265 C.3       7 UNK         0.0284 
     36 CB        -73.3757   23.7714  -74.8695 C.3       7 UNK        -0.1958 
     37 N         -73.6241   25.8642  -76.1713 N.am      7 UNK        -0.4454 
     38 C         -74.8536   25.9550  -76.6781 C.2       7 UNK         0.5089 
     39 O         -75.5344   24.9880  -77.0306 O.2       7 UNK        -0.5125 
     40 CA        -75.4143   27.3722  -76.8391 C.3       6 UNK         0.0408 
     41 CB        -75.0301   27.9473  -78.2163 C.3       6 UNK        -0.1791 
     42 N         -76.8607   27.2905  -76.6815 N.am      6 UNK        -0.4762 
     43 C         -77.7306   28.3045  -76.6017 C.2       6 UNK         0.5007 
     44 O         -77.4179   29.4881  -76.7368 O.2       6 UNK        -0.5032 
     45 CA        -79.1946   27.9066  -76.3073 C.3       5 UNK         0.0783 
     46 C46       -80.2220   29.0458  -76.5578 C.3       11 UNK        -0.0857 
     47 S47       -81.7602   28.7490  -75.6248 S.3       11 UNK        -0.2512 
     48 C48       -81.6389   30.0093  -74.3124 C.3       11 UNK         0.0225 
     49 N         -79.5579   26.6383  -76.9588 N.am      5 UNK        -0.4615 
     50 C         -79.6189   26.4087  -78.2817 C.2       4 UNK         0.5053 
     51 O         -79.4143   27.2723  -79.1353 O.2       4 UNK        -0.5105 
     52 CA        -79.9281   24.9736  -78.7552 C.3       4 UNK         0.0263 
     53 CB        -78.6620   24.3234  -79.3390 C.3       4 UNK        -0.1981 
     54 N         -80.4569   24.1056  -77.7029 N.am      4 UNK        -0.4224 
     55 C         -81.6819   24.1968  -77.1682 C.2       3 UNK         0.4895 
     56 O         -82.5584   24.9508  -77.5915 O.2       3 UNK        -0.5091 
     57 CA        -81.9773   23.3132  -75.9396 C.3       3 UNK         0.0250 
     58 CB        -82.8567   22.1169  -76.3394 C.3       3 UNK        -0.1996 
     59 N         -80.7899   22.8182  -75.2257 N.am      3 UNK        -0.4254 
     60 C         -79.8551   23.5841  -74.6456 C.2       2 UNK         0.5004 
     61 O         -79.8333   24.8166  -74.7151 O.2       2 UNK        -0.5226 
     62 CA        -78.7266   22.8512  -73.9131 C.3       2 UNK         0.0269 
     63 CB        -77.5979   22.4742  -74.8882 C.3       2 UNK        -0.1926 
     64 N         -78.1985   23.7532  -72.8983 N.am      2 UNK        -0.4687 
     65 C         -77.9094   23.4394  -71.6307 C.2       1 UNK         0.5165 
     66 O         -77.9675   22.2949  -71.1779 O.2       1 UNK        -0.5079 
     67 H67       -76.0178   27.1126  -73.5435 H         1 UNK         0.0900 
     68 H68       -74.3311   26.6202  -73.4093 H         1 UNK         0.0900 
     69 H69       -75.0216   27.7235  -72.2159 H         1 UNK         0.0900 
     70 H70       -77.4826   26.4953  -71.6460 H         1 UNK         0.2959 
     71 H71       -76.7282   24.1981  -70.0368 H         1 UNK         0.1079 
     72 H72       -79.1315   24.2473  -69.3183 H         1 UNK         0.0837 
     73 H73       -78.2793   25.7224  -69.0251 H         1 UNK         0.0837 
     74 H74       -80.5975   28.0289  -69.6525 H         1 UNK         0.0685 
     75 H75       -78.8748   27.7983  -69.5474 H         1 UNK         0.0685 
     76 H76       -81.5314   28.3269  -72.1671 H         1 UNK         0.1434 
     77 H77       -79.1619   31.1716  -74.3332 H         1 UNK         0.1329 
     78 H78       -77.5256   29.2063  -70.8980 H         1 UNK         0.1335 
     79 H79       -77.1411   32.0151  -73.2967 H         1 UNK         0.0680 
     80 H80       -76.5017   31.3132  -71.8297 H         1 UNK         0.0680 
     81 H81       -74.3522   32.1408  -73.4590 H         1 UNK         0.1032 
     82 H82       -75.1741   32.1269  -75.0015 H         1 UNK         0.1032 
     83 H83       -73.6081   30.2963  -75.7825 H         1 UNK         0.0461 
     84 H84       -70.7624   32.9726  -76.1523 H         1 UNK         0.3453 
     85 H85       -70.7036   31.5969  -75.0804 H         1 UNK         0.3453 
     86 H86       -72.0266   30.8467  -73.3099 H         1 UNK         0.2984 
     87 H87       -70.3036   29.1370  -72.9612 H         1 UNK         0.0554 
     88 H88       -71.1549   28.1421  -70.8413 H         1 UNK         0.0847 
     89 H89       -72.7032   27.7830  -71.5945 H         1 UNK         0.0847 
     90 H90       -72.2080   29.4505  -71.3447 H         1 UNK         0.0847 
     91 H91       -71.4566   26.4015  -73.2688 H         1 UNK         0.3141 
     92 H92       -68.7567   25.2597  -75.1742 H         1 UNK         0.0743 
     93 H93       -69.4948   24.3986  -72.3208 H         1 UNK         0.0784 
     94 H94       -68.6966   23.3924  -73.5308 H         1 UNK         0.0784 
     95 H95       -67.8798   24.8048  -72.8835 H         1 UNK         0.0784 
     96 H96       -71.1985   24.1073  -74.1022 H         1 UNK         0.3213 
     97 H97       -72.8988   24.0737  -76.9559 H         1 UNK         0.0855 
     98 H98       -72.8064   22.8463  -74.7715 H         1 UNK         0.0814 
     99 H99       -74.4123   23.4814  -75.0413 H         1 UNK         0.0814 
    100 H100      -73.3406   24.2931  -73.9135 H         1 UNK         0.0814 
    101 H101      -73.1387   26.7231  -75.9093 H         1 UNK         0.3105 
    102 H102      -75.0168   28.0101  -76.0476 H         1 UNK         0.0547 
    103 H103      -73.9479   27.9404  -78.3528 H         1 UNK         0.0837 
    104 H104      -75.4674   27.3661  -79.0291 H         1 UNK         0.0837 
    105 H105      -75.3573   28.9805  -78.3287 H         1 UNK         0.0837 
    106 H106      -77.2037   26.3409  -76.6006 H         1 UNK         0.3020 
    107 H107      -79.1970   27.6997  -75.2349 H         1 UNK         0.1245 
    108 H108      -80.4626   29.1374  -77.6171 H         1 UNK         0.0781 
    109 H109      -79.8278   30.0198  -76.2691 H         1 UNK         0.0781 
    110 H110      -82.5708   30.0131  -73.7450 H         1 UNK         0.0836 
    111 H111      -81.5621   30.9986  -74.7664 H         1 UNK         0.0836 
    112 H112      -79.7509   25.8744  -76.3161 H         1 UNK         0.3022 
    113 H113      -80.6758   25.0456  -79.5481 H         1 UNK         0.0747 
    114 H114      -78.8723   23.3319  -79.7405 H         1 UNK         0.0793 
    115 H115      -78.2563   24.9217  -80.1560 H         1 UNK         0.0793 
    116 H116      -77.8757   24.2242  -78.5890 H         1 UNK         0.0793 
    117 H117      -79.8123   23.4457  -77.2940 H         1 UNK         0.3047 
    118 H118      -82.5408   23.9318  -75.2376 H         1 UNK         0.0822 
    119 H119      -83.1682   21.5422  -75.4669 H         1 UNK         0.0807 
    120 H120      -82.3353   21.4421  -77.0196 H         1 UNK         0.0807 
    121 H121      -83.7649   22.4499  -76.8443 H         1 UNK         0.0807 
    122 H122      -80.7122   21.8145  -75.1399 H         1 UNK         0.2946 
    123 H123      -79.1338   21.9509  -73.4468 H         1 UNK         0.1144 
    124 H124      -77.9536   21.7885  -75.6582 H         1 UNK         0.0793 
    125 H125      -76.7773   21.9792  -74.3686 H         1 UNK         0.0793 
    126 H126      -77.1894   23.3512  -75.3927 H         1 UNK         0.0793 
    127 H127      -78.2122   24.7301  -73.1601 H         1 UNK         0.2896 
@<TRIPOS>BOND
     1    1    2 1    
     2    1   67 1    
     3    1   68 1    
     4    1   69 1    
     5    2    3 2    
     6    2    4 am   BACKBONE|DICT|INTERRES
     7    4    5 1    
     8    4   70 1    
     9    5    6 1    
    10    5   65 1    
    11    5   71 1    
    12    6    7 1    
    13    6   72 1    
    14    6   73 1    
    15    7    8 1    
    16    8    9 1    
    17    8   74 1    
    18    8   75 1    
    19    9   10 ar   
    20    9   14 ar   
    21   10   11 ar   
    22   10   76 1    
    23   11   12 ar   
    24   11   48 1    
    25   12   13 ar   
    26   12   77 1    
    27   13   14 ar   
    28   13   15 1    
    29   14   78 1    
    30   15   16 1    
    31   15   79 1    
    32   15   80 1    
    33   16   17 1    
    34   17   18 1    
    35   17   81 1    
    36   17   82 1    
    37   18   19 1    
    38   18   22 1    
    39   18   83 1    
    40   19   20 am   BACKBONE|DICT|INTERRES
    41   19   21 2    
    42   20   84 1    
    43   20   85 1    
    44   22   23 am   BACKBONE|DICT|INTERRES
    45   22   86 1    
    46   23   24 2    
    47   23   25 1    
    48   25   26 1    
    49   25   27 1    
    50   25   87 1    
    51   26   88 1    
    52   26   89 1    
    53   26   90 1    
    54   27   28 am   BACKBONE|DICT|INTERRES
    55   27   91 1    
    56   28   29 2    
    57   28   30 1    
    58   30   31 1    
    59   30   32 1    
    60   30   92 1    
    61   31   93 1    
    62   31   94 1    
    63   31   95 1    
    64   32   33 am   BACKBONE|DICT|INTERRES
    65   32   96 1    
    66   33   34 2    
    67   33   35 1    
    68   35   36 1    
    69   35   37 1    
    70   35   97 1    
    71   36   98 1    
    72   36   99 1    
    73   36  100 1    
    74   37   38 am   BACKBONE|DICT|INTERRES
    75   37  101 1    
    76   38   39 2    
    77   38   40 1    
    78   40   41 1    
    79   40   42 1    
    80   40  102 1    
    81   41  103 1    
    82   41  104 1    
    83   41  105 1    
    84   42   43 am   BACKBONE|DICT|INTERRES
    85   42  106 1    
    86   43   44 2    
    87   43   45 1    
    88   45   46 1    
    89   45   49 1    
    90   45  107 1    
    91   46   47 1    
    92   46  108 1    
    93   46  109 1    
    94   47   48 1    
    95   48  110 1    
    96   48  111 1    
    97   49   50 am   BACKBONE|DICT|INTERRES
    98   49  112 1    
    99   50   51 2    
   100   50   52 1    
   101   52   53 1    
   102   52   54 1    
   103   52  113 1    
   104   53  114 1    
   105   53  115 1    
   106   53  116 1    
   107   54   55 am   BACKBONE|DICT|INTERRES
   108   54  117 1    
   109   55   56 2    
   110   55   57 1    
   111   57   58 1    
   112   57   59 1    
   113   57  118 1    
   114   58  119 1    
   115   58  120 1    
   116   58  121 1    
   117   59   60 am   BACKBONE|DICT|INTERRES
   118   59  122 1    
   119   60   61 2    
   120   60   62 1    
   121   62   63 1    
   122   62   64 1    
   123   62  123 1    
   124   63  124 1    
   125   63  125 1    
   126   63  126 1    
   127   64   65 am   BACKBONE|DICT|INTERRES
   128   64  127 1    
   129   65   66 2    
@<TRIPOS>SUBSTRUCTURE
     1 UNK         1 GROUP             0       ****    0 ROOT    
