@<TRIPOS>MOLECULE
3R135
127   129    1
SMALL
USER_CHARGES


@<TRIPOS>ATOM
      1 CA        -82.4103   24.7333  -72.8247 C.3       0 UNK        -0.1998 
      2 C         -82.9338   26.1105  -73.2039 C.2       0 UNK         0.4909 
      3 O         -83.9456   26.5531  -72.6596 O.2       0 UNK        -0.5240 
      4 N         -82.2496   26.7881  -74.1296 N.am      1 UNK        -0.4739 
      5 CA        -82.5496   28.1513  -74.5807 C.3       1 UNK         0.0864 
      6 C6        -81.7243   29.2292  -73.8205 C.3       11 UNK        -0.0881 
      7 S7        -79.9375   28.8593  -73.6499 S.3       11 UNK        -0.2682 
      8 C8        -79.8822   28.4378  -71.8774 C.3       11 UNK         0.0289 
      9 C9        -78.4977   28.0519  -71.3664 C.ar      11 UNK        -0.0687 
     10 C10       -78.3559   26.9306  -70.5411 C.ar      11 UNK        -0.0823 
     11 C11       -77.1208   26.6247  -69.9626 C.ar      11 UNK        -0.0830 
     12 C12       -76.0175   27.4394  -70.2290 C.ar      11 UNK        -0.1021 
     13 C13       -76.1353   28.5479  -71.0708 C.ar      11 UNK        -0.0753 
     14 C14       -77.3797   28.8520  -71.6334 C.ar      11 UNK        -0.0933 
     15 C15       -74.9234   29.4301  -71.3390 C.3       11 UNK         0.0166 
     16 S16       -73.6147   28.5087  -72.2026 S.3       11 UNK        -0.2615 
     17 C17       -72.4226   29.8296  -72.5931 C.3       11 UNK        -0.0865 
     18 CA        -72.8212   30.6998  -73.8161 C.3       10 UNK         0.0862 
     19 C         -71.6918   31.7234  -74.1366 C.2       10 UNK         0.5551 
     20 N         -70.9697   31.5929  -75.2443 N.am      10 UNK        -0.7319 
     21 O         -71.4696   32.6512  -73.3626 O.2       10 UNK        -0.5018 
     22 N         -73.2511   29.8937  -74.9708 N.am      10 UNK        -0.4509 
     23 C         -73.9186   30.3776  -76.0261 C.2       10 UNK         0.4899 
     24 O         -74.3654   31.5250  -76.0736 O.2       10 UNK        -0.4839 
     25 CA        -74.1257   29.4372  -77.2347 C.3       9 UNK         0.0222 
     26 CB        -74.0981   30.2104  -78.5697 C.3       9 UNK        -0.1966 
     27 N         -73.2119   28.2866  -77.3121 N.am      9 UNK        -0.4218 
     28 C         -71.8710   28.2824  -77.3130 C.2       9 UNK         0.5020 
     29 O         -71.1923   29.2989  -77.1492 O.2       9 UNK        -0.5274 
     30 CA        -71.1657   26.9209  -77.5219 C.3       8 UNK         0.0270 
     31 CB        -69.7346   26.9194  -76.9516 C.3       8 UNK        -0.1976 
     32 N         -71.8764   25.7505  -76.9868 N.am      8 UNK        -0.4313 
     33 C         -73.0042   25.2009  -77.4523 C.2       8 UNK         0.5041 
     34 O         -73.6669   25.6944  -78.3645 O.2       8 UNK        -0.5577 
     35 CA        -73.5063   23.9111  -76.7796 C.3       7 UNK         0.0284 
     36 CB        -72.8190   22.6692  -77.3793 C.3       7 UNK        -0.1958 
     37 N         -73.4414   23.9126  -75.3105 N.am      7 UNK        -0.4454 
     38 C         -72.3655   23.9168  -74.5072 C.2       7 UNK         0.5089 
     39 O         -71.2083   23.9419  -74.9284 O.2       7 UNK        -0.5125 
     40 CA        -72.6013   23.9459  -72.9833 C.3       6 UNK         0.0408 
     41 CB        -71.8451   25.1219  -72.3431 C.3       6 UNK        -0.1791 
     42 N         -74.0184   24.0471  -72.6261 N.am      6 UNK        -0.4762 
     43 C         -74.8574   23.0115  -72.4739 C.2       6 UNK         0.5007 
     44 O         -74.5117   21.8327  -72.5605 O.2       6 UNK        -0.5032 
     45 CA        -76.3468   23.3546  -72.2342 C.3       5 UNK         0.0783 
     46 C46       -76.7686   23.2298  -70.7477 C.3       11 UNK        -0.0857 
     47 S47       -75.7861   24.2181  -69.5655 S.3       11 UNK        -0.2512 
     48 C48       -76.9855   25.4603  -68.9922 C.3       11 UNK         0.0225 
     49 N         -76.7467   24.6379  -72.8313 N.am      5 UNK        -0.4615 
     50 C         -76.7801   24.8528  -74.1535 C.2       4 UNK         0.5053 
     51 O         -76.4227   24.0146  -74.9844 O.2       4 UNK        -0.5105 
     52 CA        -77.2179   26.2430  -74.6313 C.3       4 UNK         0.0263 
     53 CB        -76.0133   27.1905  -74.6787 C.3       4 UNK        -0.1981 
     54 N         -77.8042   26.1627  -75.9681 N.am      4 UNK        -0.4224 
     55 C         -79.0594   25.7759  -76.2098 C.2       3 UNK         0.4895 
     56 O         -79.8969   25.5456  -75.3297 O.2       3 UNK        -0.5091 
     57 CA        -79.4481   25.6086  -77.6836 C.3       3 UNK         0.0250 
     58 CB        -79.1318   24.1889  -78.1820 C.3       3 UNK        -0.1996 
     59 N         -80.8798   25.8482  -77.7564 N.am      3 UNK        -0.4254 
     60 C         -81.5166   26.6049  -78.6537 C.2       2 UNK         0.5004 
     61 O         -81.0243   26.9939  -79.7132 O.2       2 UNK        -0.5226 
     62 CA        -82.9357   27.0464  -78.2528 C.3       2 UNK         0.0269 
     63 CB        -83.9800   26.0206  -78.7220 C.3       2 UNK        -0.1926 
     64 N         -83.0562   27.2441  -76.8003 N.am      2 UNK        -0.4687 
     65 C         -82.4424   28.2238  -76.1157 C.2       1 UNK         0.5165 
     66 O         -81.8054   29.1282  -76.6584 O.2       1 UNK        -0.5079 
     67 H67       -81.4932   24.4850  -73.3590 H         1 UNK         0.0900 
     68 H68       -83.1546   23.9717  -73.0552 H         1 UNK         0.0900 
     69 H69       -82.1995   24.6936  -71.7565 H         1 UNK         0.0900 
     70 H70       -81.4059   26.3791  -74.5281 H         1 UNK         0.2959 
     71 H71       -83.6023   28.3665  -74.3832 H         1 UNK         0.1079 
     72 H72       -81.8328   30.2088  -74.2895 H         1 UNK         0.0837 
     73 H73       -82.1531   29.3525  -72.8251 H         1 UNK         0.0837 
     74 H74       -80.5923   27.6294  -71.6964 H         1 UNK         0.0685 
     75 H75       -80.2324   29.2935  -71.2986 H         1 UNK         0.0685 
     76 H76       -79.2192   26.3201  -70.3123 H         1 UNK         0.1434 
     77 H77       -75.0618   27.2130  -69.7753 H         1 UNK         0.1329 
     78 H78       -77.4861   29.7252  -72.2624 H         1 UNK         0.1335 
     79 H79       -75.2084   30.2966  -71.9370 H         1 UNK         0.0680 
     80 H80       -74.5355   29.8130  -70.3941 H         1 UNK         0.0680 
     81 H81       -72.2870   30.4534  -71.7073 H         1 UNK         0.1032 
     82 H82       -71.4577   29.3508  -72.7716 H         1 UNK         0.1032 
     83 H83       -73.6842   31.2964  -73.5150 H         1 UNK         0.0461 
     84 H84       -70.2430   32.2617  -75.4424 H         1 UNK         0.3453 
     85 H85       -71.1333   30.8203  -75.8831 H         1 UNK         0.3453 
     86 H86       -72.9168   28.9431  -75.0015 H         1 UNK         0.2984 
     87 H87       -75.1256   29.0177  -77.1181 H         1 UNK         0.0554 
     88 H88       -74.2809   29.5484  -79.4162 H         1 UNK         0.0847 
     89 H89       -73.1369   30.7007  -78.7291 H         1 UNK         0.0847 
     90 H90       -74.8670   30.9835  -78.5970 H         1 UNK         0.0847 
     91 H91       -73.6459   27.3921  -77.5280 H         1 UNK         0.3141 
     92 H92       -71.0891   26.7861  -78.6026 H         1 UNK         0.0743 
     93 H93       -69.1283   27.7089  -77.3978 H         1 UNK         0.0784 
     94 H94       -69.7339   27.0758  -75.8721 H         1 UNK         0.0784 
     95 H95       -69.2268   25.9761  -77.1540 H         1 UNK         0.0784 
     96 H96       -71.4231   25.2535  -76.2223 H         1 UNK         0.3213 
     97 H97       -74.5685   23.8361  -77.0191 H         1 UNK         0.0855 
     98 H98       -71.7428   22.6692  -77.2045 H         1 UNK         0.0814 
     99 H99       -72.9698   22.6265  -78.4588 H         1 UNK         0.0814 
    100 H100      -73.2271   21.7498  -76.9593 H         1 UNK         0.0814 
    101 H101      -74.3521   23.9088  -74.8638 H         1 UNK         0.3105 
    102 H102      -72.1934   23.0200  -72.5729 H         1 UNK         0.0547 
    103 H103      -72.1221   26.0726  -72.7977 H         1 UNK         0.0837 
    104 H104      -72.0398   25.1895  -71.2726 H         1 UNK         0.0837 
    105 H105      -70.7675   25.0077  -72.4678 H         1 UNK         0.0837 
    106 H106      -74.3935   24.9792  -72.5191 H         1 UNK         0.3020 
    107 H107      -76.9064   22.5860  -72.7738 H         1 UNK         0.1245 
    108 H108      -76.6859   22.1865  -70.4373 H         1 UNK         0.0781 
    109 H109      -77.8267   23.4741  -70.6434 H         1 UNK         0.0781 
    110 H110      -77.9484   24.9851  -68.7985 H         1 UNK         0.0836 
    111 H111      -76.6450   25.8501  -68.0319 H         1 UNK         0.0836 
    112 H112      -77.0085   25.3754  -72.1908 H         1 UNK         0.3022 
    113 H113      -77.9559   26.6399  -73.9319 H         1 UNK         0.0747 
    114 H114      -75.5555   27.2555  -73.6952 H         1 UNK         0.0793 
    115 H115      -76.3118   28.2000  -74.9613 H         1 UNK         0.0793 
    116 H116      -75.2468   26.8497  -75.3757 H         1 UNK         0.0793 
    117 H117      -77.1713   26.2803  -76.7453 H         1 UNK         0.3047 
    118 H118      -78.9091   26.3458  -78.2831 H         1 UNK         0.0822 
    119 H119      -78.0618   23.9840  -78.1261 H         1 UNK         0.0807 
    120 H120      -79.4349   24.0586  -79.2210 H         1 UNK         0.0807 
    121 H121      -79.6412   23.4299  -77.5867 H         1 UNK         0.0807 
    122 H122      -81.3667   25.6192  -76.8998 H         1 UNK         0.2946 
    123 H123      -83.1370   27.9991  -78.7484 H         1 UNK         0.1144 
    124 H124      -83.8349   25.0482  -78.2498 H         1 UNK         0.0793 
    125 H125      -83.9203   25.8711  -79.8010 H         1 UNK         0.0793 
    126 H126      -84.9931   26.3555  -78.4986 H         1 UNK         0.0793 
    127 H127      -83.5719   26.5469  -76.2815 H         1 UNK         0.2896 
@<TRIPOS>BOND
     1    1    2 1    
     2    1   67 1    
     3    1   68 1    
     4    1   69 1    
     5    2    3 2    
     6    2    4 am   BACKBONE|DICT|INTERRES
     7    4    5 1    
     8    4   70 1    
     9    5    6 1    
    10    5   65 1    
    11    5   71 1    
    12    6    7 1    
    13    6   72 1    
    14    6   73 1    
    15    7    8 1    
    16    8    9 1    
    17    8   74 1    
    18    8   75 1    
    19    9   10 ar   
    20    9   14 ar   
    21   10   11 ar   
    22   10   76 1    
    23   11   12 ar   
    24   11   48 1    
    25   12   13 ar   
    26   12   77 1    
    27   13   14 ar   
    28   13   15 1    
    29   14   78 1    
    30   15   16 1    
    31   15   79 1    
    32   15   80 1    
    33   16   17 1    
    34   17   18 1    
    35   17   81 1    
    36   17   82 1    
    37   18   19 1    
    38   18   22 1    
    39   18   83 1    
    40   19   20 am   BACKBONE|DICT|INTERRES
    41   19   21 2    
    42   20   84 1    
    43   20   85 1    
    44   22   23 am   BACKBONE|DICT|INTERRES
    45   22   86 1    
    46   23   24 2    
    47   23   25 1    
    48   25   26 1    
    49   25   27 1    
    50   25   87 1    
    51   26   88 1    
    52   26   89 1    
    53   26   90 1    
    54   27   28 am   BACKBONE|DICT|INTERRES
    55   27   91 1    
    56   28   29 2    
    57   28   30 1    
    58   30   31 1    
    59   30   32 1    
    60   30   92 1    
    61   31   93 1    
    62   31   94 1    
    63   31   95 1    
    64   32   33 am   BACKBONE|DICT|INTERRES
    65   32   96 1    
    66   33   34 2    
    67   33   35 1    
    68   35   36 1    
    69   35   37 1    
    70   35   97 1    
    71   36   98 1    
    72   36   99 1    
    73   36  100 1    
    74   37   38 am   BACKBONE|DICT|INTERRES
    75   37  101 1    
    76   38   39 2    
    77   38   40 1    
    78   40   41 1    
    79   40   42 1    
    80   40  102 1    
    81   41  103 1    
    82   41  104 1    
    83   41  105 1    
    84   42   43 am   BACKBONE|DICT|INTERRES
    85   42  106 1    
    86   43   44 2    
    87   43   45 1    
    88   45   46 1    
    89   45   49 1    
    90   45  107 1    
    91   46   47 1    
    92   46  108 1    
    93   46  109 1    
    94   47   48 1    
    95   48  110 1    
    96   48  111 1    
    97   49   50 am   BACKBONE|DICT|INTERRES
    98   49  112 1    
    99   50   51 2    
   100   50   52 1    
   101   52   53 1    
   102   52   54 1    
   103   52  113 1    
   104   53  114 1    
   105   53  115 1    
   106   53  116 1    
   107   54   55 am   BACKBONE|DICT|INTERRES
   108   54  117 1    
   109   55   56 2    
   110   55   57 1    
   111   57   58 1    
   112   57   59 1    
   113   57  118 1    
   114   58  119 1    
   115   58  120 1    
   116   58  121 1    
   117   59   60 am   BACKBONE|DICT|INTERRES
   118   59  122 1    
   119   60   61 2    
   120   60   62 1    
   121   62   63 1    
   122   62   64 1    
   123   62  123 1    
   124   63  124 1    
   125   63  125 1    
   126   63  126 1    
   127   64   65 am   BACKBONE|DICT|INTERRES
   128   64  127 1    
   129   65   66 2    
@<TRIPOS>SUBSTRUCTURE
     1 UNK         1 GROUP             0       ****    0 ROOT    
