@<TRIPOS>MOLECULE
3R135
127   129    1
SMALL
USER_CHARGES


@<TRIPOS>ATOM
      1 CA        -75.4301   26.3968  -67.4949 C.3       0 UNK        -0.1998 
      2 C         -76.7755   26.4482  -68.2034 C.2       0 UNK         0.4909 
      3 O         -77.7079   27.0772  -67.7020 O.2       0 UNK        -0.5240 
      4 N         -76.8821   25.7911  -69.3624 N.am      1 UNK        -0.4739 
      5 CA        -78.0968   25.6900  -70.1706 C.3       1 UNK         0.0864 
      6 C6        -78.4036   26.9950  -70.9590 C.3       11 UNK        -0.0881 
      7 S7        -80.1515   27.1203  -71.4674 S.3       11 UNK        -0.2682 
      8 C8        -80.2954   28.9033  -71.7925 C.3       11 UNK         0.0289 
      9 C9        -79.5513   29.3169  -73.0543 C.ar      11 UNK        -0.0687 
     10 C10       -80.2046   29.3109  -74.2901 C.ar      11 UNK        -0.0823 
     11 C11       -79.5428   29.7395  -75.4443 C.ar      11 UNK        -0.0830 
     12 C12       -78.2165   30.1746  -75.3543 C.ar      11 UNK        -0.1021 
     13 C13       -77.5449   30.1756  -74.1278 C.ar      11 UNK        -0.0753 
     14 C14       -78.2198   29.7367  -72.9826 C.ar      11 UNK        -0.0933 
     15 C15       -76.0918   30.6403  -74.0690 C.3       11 UNK         0.0166 
     16 S16       -75.7098   31.6473  -72.5948 S.3       11 UNK        -0.2615 
     17 C17       -74.1983   32.5336  -73.1166 C.3       11 UNK        -0.0865 
     18 CA        -72.8702   31.7610  -72.8813 C.3       10 UNK         0.0862 
     19 C         -72.5449   31.4953  -71.3824 C.2       10 UNK         0.5551 
     20 N         -72.1418   30.2919  -70.9831 N.am      10 UNK        -0.7319 
     21 O         -72.6305   32.4086  -70.5650 O.2       10 UNK        -0.5018 
     22 N         -72.7604   30.5647  -73.7197 N.am      10 UNK        -0.4509 
     23 C         -72.4862   30.5256  -75.0230 C.2       10 UNK         0.4899 
     24 O         -72.3313   31.5296  -75.7185 O.2       10 UNK        -0.4839 
     25 CA        -72.3634   29.1365  -75.6781 C.3       9 UNK         0.0222 
     26 CB        -70.8818   28.7344  -75.8087 C.3       9 UNK        -0.1966 
     27 N         -73.1445   28.0538  -75.0559 N.am      9 UNK        -0.4218 
     28 C         -73.0220   27.4962  -73.8397 C.2       9 UNK         0.5020 
     29 O         -72.2746   27.9213  -72.9566 O.2       9 UNK        -0.5274 
     30 CA        -73.8915   26.2624  -73.5553 C.3       8 UNK         0.0270 
     31 CB        -75.2759   26.6793  -73.0356 C.3       8 UNK        -0.1976 
     32 N         -74.0393   25.4301  -74.7520 N.am      8 UNK        -0.4313 
     33 C         -73.1800   24.4646  -75.1117 C.2       8 UNK         0.5041 
     34 O         -72.2370   24.0925  -74.4125 O.2       8 UNK        -0.5577 
     35 CA        -73.3928   23.8036  -76.4876 C.3       7 UNK         0.0284 
     36 CB        -74.2411   22.5288  -76.3582 C.3       7 UNK        -0.1958 
     37 N         -74.0128   24.7014  -77.4643 N.am      7 UNK        -0.4454 
     38 C         -73.3988   25.7492  -78.0314 C.2       7 UNK         0.5089 
     39 O         -72.2079   26.0134  -77.8725 O.2       7 UNK        -0.5125 
     40 CA        -74.2658   26.6788  -78.9004 C.3       6 UNK         0.0408 
     41 CB        -74.0933   26.3359  -80.3881 C.3       6 UNK        -0.1791 
     42 N         -75.6942   26.6545  -78.5651 N.am      6 UNK        -0.4762 
     43 C         -76.2369   27.0122  -77.3940 C.2       6 UNK         0.5007 
     44 O         -75.5667   27.3736  -76.4261 O.2       6 UNK        -0.5032 
     45 CA        -77.7685   26.8972  -77.2610 C.3       5 UNK         0.0783 
     46 C46       -78.4925   27.9945  -78.0845 C.3       11 UNK        -0.0857 
     47 S47       -80.2479   28.1422  -77.6122 S.3       11 UNK        -0.2512 
     48 C48       -80.2740   29.7629  -76.7802 C.3       11 UNK         0.0225 
     49 N         -78.2568   25.5313  -77.5164 N.am      5 UNK        -0.4615 
     50 C         -78.2688   24.8571  -78.6790 C.2       4 UNK         0.5053 
     51 O         -77.8557   25.3227  -79.7419 O.2       4 UNK        -0.5105 
     52 CA        -78.7763   23.4026  -78.6709 C.3       4 UNK         0.0263 
     53 CB        -77.5960   22.4285  -78.8269 C.3       4 UNK        -0.1981 
     54 N         -79.5237   23.0477  -77.4649 N.am      4 UNK        -0.4224 
     55 C         -80.7795   23.4313  -77.1984 C.2       3 UNK         0.4895 
     56 O         -81.4875   24.0583  -77.9867 O.2       3 UNK        -0.5091 
     57 CA        -81.3369   23.0648  -75.8096 C.3       3 UNK         0.0250 
     58 CB        -82.2318   21.8179  -75.9027 C.3       3 UNK        -0.1996 
     59 N         -80.3095   22.8468  -74.7806 N.am      3 UNK        -0.4254 
     60 C         -79.4566   23.7832  -74.3434 C.2       2 UNK         0.5004 
     61 O         -79.3908   24.9247  -74.8055 O.2       2 UNK        -0.5226 
     62 CA        -78.4798   23.3745  -73.2397 C.3       2 UNK         0.0269 
     63 CB        -77.0853   23.0870  -73.8261 C.3       2 UNK        -0.1926 
     64 N         -78.4185   24.4784  -72.2907 N.am      2 UNK        -0.4687 
     65 C         -77.9909   24.4111  -71.0269 C.2       1 UNK         0.5165 
     66 O         -77.5224   23.3859  -70.5258 O.2       1 UNK        -0.5079 
     67 H67       -75.0350   27.4043  -67.3672 H         1 UNK         0.0900 
     68 H68       -74.6971   25.8140  -68.0527 H         1 UNK         0.0900 
     69 H69       -75.5421   25.9467  -66.5089 H         1 UNK         0.0900 
     70 H70       -76.1082   25.2328  -69.6985 H         1 UNK         0.2959 
     71 H71       -78.9246   25.5071  -69.4814 H         1 UNK         0.1079 
     72 H72       -78.1889   27.8603  -70.3305 H         1 UNK         0.0837 
     73 H73       -77.7596   27.1004  -71.8319 H         1 UNK         0.0837 
     74 H74       -81.3524   29.1554  -71.8894 H         1 UNK         0.0685 
     75 H75       -79.9302   29.4661  -70.9319 H         1 UNK         0.0685 
     76 H76       -81.2328   28.9813  -74.3521 H         1 UNK         0.1434 
     77 H77       -77.7041   30.5178  -76.2422 H         1 UNK         0.1329 
     78 H78       -77.7128   29.7338  -72.0279 H         1 UNK         0.1335 
     79 H79       -75.8494   31.2168  -74.9629 H         1 UNK         0.0680 
     80 H80       -75.4462   29.7623  -74.0797 H         1 UNK         0.0680 
     81 H81       -74.1691   33.4820  -72.5774 H         1 UNK         0.1032 
     82 H82       -74.2886   32.8127  -74.1671 H         1 UNK         0.1032 
     83 H83       -72.0646   32.4251  -73.2001 H         1 UNK         0.0461 
     84 H84       -71.9285   30.1560  -70.0078 H         1 UNK         0.3453 
     85 H85       -72.0322   29.5182  -71.6256 H         1 UNK         0.3453 
     86 H86       -72.8120   29.6753  -73.2342 H         1 UNK         0.2984 
     87 H87       -72.7667   29.2370  -76.6870 H         1 UNK         0.0554 
     88 H88       -70.7724   27.7914  -76.3442 H         1 UNK         0.0847 
     89 H89       -70.4029   28.6240  -74.8353 H         1 UNK         0.0847 
     90 H90       -70.3201   29.4876  -76.3627 H         1 UNK         0.0847 
     91 H91       -73.8983   27.6998  -75.6400 H         1 UNK         0.3141 
     92 H92       -73.4006   25.6845  -72.7691 H         1 UNK         0.0743 
     93 H93       -75.8392   27.2541  -73.7713 H         1 UNK         0.0784 
     94 H94       -75.8680   25.8046  -72.7708 H         1 UNK         0.0784 
     95 H95       -75.1870   27.2951  -72.1394 H         1 UNK         0.0784 
     96 H96       -74.7553   25.7133  -75.4086 H         1 UNK         0.3213 
     97 H97       -72.4084   23.5178  -76.8653 H         1 UNK         0.0855 
     98 H98       -75.2598   22.7511  -76.0443 H         1 UNK         0.0814 
     99 H99       -73.8133   21.8474  -75.6213 H         1 UNK         0.0814 
    100 H100      -74.2916   21.9893  -77.3042 H         1 UNK         0.0814 
    101 H101      -74.9863   24.5512  -77.6818 H         1 UNK         0.3105 
    102 H102      -73.9084   27.6980  -78.7398 H         1 UNK         0.0547 
    103 H103      -73.0419   26.3669  -80.6777 H         1 UNK         0.0837 
    104 H104      -74.4663   25.3370  -80.6178 H         1 UNK         0.0837 
    105 H105      -74.6231   27.0461  -81.0231 H         1 UNK         0.0837 
    106 H106      -76.3326   26.3050  -79.2772 H         1 UNK         0.3020 
    107 H107      -77.9844   27.0891  -76.2071 H         1 UNK         0.1245 
    108 H108      -78.0060   28.9622  -77.9577 H         1 UNK         0.0781 
    109 H109      -78.4418   27.7867  -79.1538 H         1 UNK         0.0781 
    110 H110      -79.8482   30.5207  -77.4398 H         1 UNK         0.0836 
    111 H111      -81.3128   30.0561  -76.6209 H         1 UNK         0.0836 
    112 H112      -78.6505   25.0801  -76.6968 H         1 UNK         0.3022 
    113 H113      -79.4346   23.2841  -79.5343 H         1 UNK         0.0747 
    114 H114      -77.9413   21.3974  -78.9060 H         1 UNK         0.0793 
    115 H115      -77.0251   22.6450  -79.7312 H         1 UNK         0.0793 
    116 H116      -76.9070   22.4879  -77.9843 H         1 UNK         0.0793 
    117 H117      -79.0321   22.5147  -76.7631 H         1 UNK         0.3047 
    118 H118      -81.9539   23.9049  -75.4833 H         1 UNK         0.0822 
    119 H119      -82.7157   21.6032  -74.9497 H         1 UNK         0.0807 
    120 H120      -81.6650   20.9346  -76.2000 H         1 UNK         0.0807 
    121 H121      -83.0238   21.9596  -76.6397 H         1 UNK         0.0807 
    122 H122      -80.2869   21.9291  -74.3585 H         1 UNK         0.2946 
    123 H123      -78.8563   22.4853  -72.7285 H         1 UNK         0.1144 
    124 H124      -77.1246   22.2546  -74.5294 H         1 UNK         0.0793 
    125 H125      -76.3700   22.8174  -73.0490 H         1 UNK         0.0793 
    126 H126      -76.6882   23.9523  -74.3579 H         1 UNK         0.0793 
    127 H127      -78.8255   25.3438  -72.6298 H         1 UNK         0.2896 
@<TRIPOS>BOND
     1    1    2 1    
     2    1   67 1    
     3    1   68 1    
     4    1   69 1    
     5    2    3 2    
     6    2    4 am   BACKBONE|DICT|INTERRES
     7    4    5 1    
     8    4   70 1    
     9    5    6 1    
    10    5   65 1    
    11    5   71 1    
    12    6    7 1    
    13    6   72 1    
    14    6   73 1    
    15    7    8 1    
    16    8    9 1    
    17    8   74 1    
    18    8   75 1    
    19    9   10 ar   
    20    9   14 ar   
    21   10   11 ar   
    22   10   76 1    
    23   11   12 ar   
    24   11   48 1    
    25   12   13 ar   
    26   12   77 1    
    27   13   14 ar   
    28   13   15 1    
    29   14   78 1    
    30   15   16 1    
    31   15   79 1    
    32   15   80 1    
    33   16   17 1    
    34   17   18 1    
    35   17   81 1    
    36   17   82 1    
    37   18   19 1    
    38   18   22 1    
    39   18   83 1    
    40   19   20 am   BACKBONE|DICT|INTERRES
    41   19   21 2    
    42   20   84 1    
    43   20   85 1    
    44   22   23 am   BACKBONE|DICT|INTERRES
    45   22   86 1    
    46   23   24 2    
    47   23   25 1    
    48   25   26 1    
    49   25   27 1    
    50   25   87 1    
    51   26   88 1    
    52   26   89 1    
    53   26   90 1    
    54   27   28 am   BACKBONE|DICT|INTERRES
    55   27   91 1    
    56   28   29 2    
    57   28   30 1    
    58   30   31 1    
    59   30   32 1    
    60   30   92 1    
    61   31   93 1    
    62   31   94 1    
    63   31   95 1    
    64   32   33 am   BACKBONE|DICT|INTERRES
    65   32   96 1    
    66   33   34 2    
    67   33   35 1    
    68   35   36 1    
    69   35   37 1    
    70   35   97 1    
    71   36   98 1    
    72   36   99 1    
    73   36  100 1    
    74   37   38 am   BACKBONE|DICT|INTERRES
    75   37  101 1    
    76   38   39 2    
    77   38   40 1    
    78   40   41 1    
    79   40   42 1    
    80   40  102 1    
    81   41  103 1    
    82   41  104 1    
    83   41  105 1    
    84   42   43 am   BACKBONE|DICT|INTERRES
    85   42  106 1    
    86   43   44 2    
    87   43   45 1    
    88   45   46 1    
    89   45   49 1    
    90   45  107 1    
    91   46   47 1    
    92   46  108 1    
    93   46  109 1    
    94   47   48 1    
    95   48  110 1    
    96   48  111 1    
    97   49   50 am   BACKBONE|DICT|INTERRES
    98   49  112 1    
    99   50   51 2    
   100   50   52 1    
   101   52   53 1    
   102   52   54 1    
   103   52  113 1    
   104   53  114 1    
   105   53  115 1    
   106   53  116 1    
   107   54   55 am   BACKBONE|DICT|INTERRES
   108   54  117 1    
   109   55   56 2    
   110   55   57 1    
   111   57   58 1    
   112   57   59 1    
   113   57  118 1    
   114   58  119 1    
   115   58  120 1    
   116   58  121 1    
   117   59   60 am   BACKBONE|DICT|INTERRES
   118   59  122 1    
   119   60   61 2    
   120   60   62 1    
   121   62   63 1    
   122   62   64 1    
   123   62  123 1    
   124   63  124 1    
   125   63  125 1    
   126   63  126 1    
   127   64   65 am   BACKBONE|DICT|INTERRES
   128   64  127 1    
   129   65   66 2    
@<TRIPOS>SUBSTRUCTURE
     1 UNK         1 GROUP             0       ****    0 ROOT    
