@<TRIPOS>MOLECULE
3R135
127   129    1
SMALL
USER_CHARGES


@<TRIPOS>ATOM
      1 CA        -81.2064   24.7592  -72.2639 C.3       0 UNK        -0.1998 
      2 C         -81.0318   25.6298  -73.4965 C.2       0 UNK         0.4909 
      3 O         -81.6283   25.3492  -74.5359 O.2       0 UNK        -0.5240 
      4 N         -80.2238   26.6906  -73.3868 N.am      1 UNK        -0.4739 
      5 CA        -79.9866   27.6845  -74.4391 C.3       1 UNK         0.0864 
      6 C6        -79.1396   28.8798  -73.9369 C.3       11 UNK        -0.0881 
      7 S7        -79.8959   29.6712  -72.4701 S.3       11 UNK        -0.2682 
      8 C8        -78.4640   30.3768  -71.5834 C.3       11 UNK         0.0289 
      9 C9        -77.3511   29.3686  -71.3210 C.ar      11 UNK        -0.0687 
     10 C10       -77.6191   28.1498  -70.6867 C.ar      11 UNK        -0.0823 
     11 C11       -76.6027   27.2055  -70.5136 C.ar      11 UNK        -0.0830 
     12 C12       -75.3025   27.5104  -70.9234 C.ar      11 UNK        -0.1021 
     13 C13       -75.0222   28.7225  -71.5552 C.ar      11 UNK        -0.0753 
     14 C14       -76.0500   29.6482  -71.7510 C.ar      11 UNK        -0.0933 
     15 C15       -73.6234   28.9843  -72.0870 C.3       11 UNK         0.0166 
     16 S16       -72.5906   29.9267  -70.9173 S.3       11 UNK        -0.2615 
     17 C17       -73.0111   31.6850  -71.2137 C.3       11 UNK        -0.0865 
     18 CA        -73.1577   32.1298  -72.6967 C.3       10 UNK         0.0862 
     19 C         -73.4029   33.6630  -72.8036 C.2       10 UNK         0.5551 
     20 N         -72.5918   34.4178  -73.5345 N.am      10 UNK        -0.7319 
     21 O         -74.3537   34.1743  -72.2176 O.2       10 UNK        -0.5018 
     22 N         -72.0675   31.6220  -73.5498 N.am      10 UNK        -0.4509 
     23 C         -72.2121   31.3209  -74.8460 C.2       10 UNK         0.4899 
     24 O         -73.2631   31.4772  -75.4686 O.2       10 UNK        -0.4839 
     25 CA        -71.0043   30.7282  -75.5902 C.3       9 UNK         0.0222 
     26 CB        -69.6451   30.8947  -74.8702 C.3       9 UNK        -0.1966 
     27 N         -71.2851   29.3348  -75.9517 N.am      9 UNK        -0.4218 
     28 C         -71.3639   28.2697  -75.1421 C.2       9 UNK         0.5020 
     29 O         -71.0677   28.2860  -73.9474 O.2       9 UNK        -0.5274 
     30 CA        -71.8827   26.9660  -75.7840 C.3       8 UNK         0.0270 
     31 CB        -71.6264   25.7319  -74.8989 C.3       8 UNK        -0.1976 
     32 N         -73.3142   27.0260  -76.0952 N.am      8 UNK        -0.4313 
     33 C         -73.8713   27.7641  -77.0666 C.2       8 UNK         0.5041 
     34 O         -73.2200   28.4943  -77.8185 O.2       8 UNK        -0.5577 
     35 CA        -75.4013   27.6408  -77.2396 C.3       7 UNK         0.0284 
     36 CB        -75.9083   28.2846  -78.5480 C.3       7 UNK        -0.1958 
     37 N         -75.8855   26.2587  -77.1137 N.am      7 UNK        -0.4454 
     38 C         -75.4552   25.1826  -77.7921 C.2       7 UNK         0.5089 
     39 O         -74.6512   25.2429  -78.7240 O.2       7 UNK        -0.5125 
     40 CA        -75.9960   23.8011  -77.3624 C.3       6 UNK         0.0408 
     41 CB        -74.9404   22.6908  -77.5445 C.3       6 UNK        -0.1791 
     42 N         -76.5605   23.7254  -76.0073 N.am      6 UNK        -0.4762 
     43 C         -75.9653   24.0231  -74.8384 C.2       6 UNK         0.5007 
     44 O         -74.8385   24.5162  -74.7599 O.2       6 UNK        -0.5032 
     45 CA        -76.7504   23.7360  -73.5359 C.3       5 UNK         0.0783 
     46 C46       -76.9335   25.0304  -72.7072 C.3       11 UNK        -0.0857 
     47 S47       -77.8358   24.7885  -71.1341 S.3       11 UNK        -0.2512 
     48 C48       -76.9095   25.8256  -69.9493 C.3       11 UNK         0.0225 
     49 N         -78.0216   23.0477  -73.8039 N.am      5 UNK        -0.4615 
     50 C         -78.1643   21.7154  -73.7970 C.2       4 UNK         0.5053 
     51 O         -77.2552   20.9344  -73.5145 O.2       4 UNK        -0.5105 
     52 CA        -79.5390   21.1383  -74.1859 C.3       4 UNK         0.0263 
     53 CB        -80.3568   20.7770  -72.9350 C.3       4 UNK        -0.1981 
     54 N         -80.3451   21.9832  -75.0765 N.am      4 UNK        -0.4224 
     55 C         -80.0001   22.3159  -76.3288 C.2       3 UNK         0.4895 
     56 O         -78.9027   22.0520  -76.8187 O.2       3 UNK        -0.5091 
     57 CA        -81.0425   23.0519  -77.1860 C.3       3 UNK         0.0250 
     58 CB        -82.4959   22.8778  -76.6985 C.3       3 UNK        -0.1996 
     59 N         -80.7096   24.4738  -77.2597 N.am      3 UNK        -0.4254 
     60 C         -79.8901   25.0157  -78.1744 C.2       2 UNK         0.5004 
     61 O         -79.3653   24.3745  -79.0856 O.2       2 UNK        -0.5226 
     62 CA        -79.6110   26.5285  -78.0943 C.3       2 UNK         0.0269 
     63 CB        -80.2901   27.2695  -79.2581 C.3       2 UNK        -0.1926 
     64 N         -80.0231   27.1487  -76.8328 N.am      2 UNK        -0.4687 
     65 C         -79.3503   27.0316  -75.6821 C.2       1 UNK         0.5165 
     66 O         -78.2851   26.4211  -75.5755 O.2       1 UNK        -0.5079 
     67 H67       -82.2166   24.3526  -72.2234 H         1 UNK         0.0900 
     68 H68       -81.0342   25.3256  -71.3487 H         1 UNK         0.0900 
     69 H69       -80.5020   23.9311  -72.2890 H         1 UNK         0.0900 
     70 H70       -79.7425   26.8637  -72.5161 H         1 UNK         0.2959 
     71 H71       -80.9662   28.0740  -74.7249 H         1 UNK         0.1079 
     72 H72       -78.1270   28.5465  -73.7050 H         1 UNK         0.0837 
     73 H73       -79.0402   29.6361  -74.7177 H         1 UNK         0.0837 
     74 H74       -78.0901   31.2250  -72.1590 H         1 UNK         0.0685 
     75 H75       -78.8055   30.7804  -70.6294 H         1 UNK         0.0685 
     76 H76       -78.6271   27.9172  -70.3719 H         1 UNK         0.1434 
     77 H77       -74.5140   26.7811  -70.7957 H         1 UNK         0.1329 
     78 H78       -75.8441   30.5796  -72.2567 H         1 UNK         0.1335 
     79 H79       -73.1270   28.0298  -72.2667 H         1 UNK         0.0680 
     80 H80       -73.6737   29.4618  -73.0631 H         1 UNK         0.0680 
     81 H81       -72.2394   32.2817  -70.7240 H         1 UNK         0.1032 
     82 H82       -73.9343   31.8974  -70.6709 H         1 UNK         0.1032 
     83 H83       -74.0855   31.6926  -73.0636 H         1 UNK         0.0461 
     84 H84       -71.8133   34.0044  -74.0217 H         1 UNK         0.3453 
     85 H85       -72.7622   35.4089  -73.6001 H         1 UNK         0.3453 
     86 H86       -71.1844   31.4426  -73.0959 H         1 UNK         0.2984 
     87 H87       -70.9344   31.2725  -76.5331 H         1 UNK         0.0554 
     88 H88       -68.8330   30.4921  -75.4753 H         1 UNK         0.0847 
     89 H89       -69.6108   30.3937  -73.9030 H         1 UNK         0.0847 
     90 H90       -69.4223   31.9487  -74.6996 H         1 UNK         0.0847 
     91 H91       -71.6926   29.2045  -76.8758 H         1 UNK         0.3141 
     92 H92       -71.3355   26.8214  -76.7179 H         1 UNK         0.0743 
     93 H93       -72.1775   25.7878  -73.9589 H         1 UNK         0.0784 
     94 H94       -71.9246   24.8130  -75.4044 H         1 UNK         0.0784 
     95 H95       -70.5677   25.6386  -74.6534 H         1 UNK         0.0784 
     96 H96       -73.9149   26.4162  -75.5517 H         1 UNK         0.3213 
     97 H97       -75.8413   28.1954  -76.4092 H         1 UNK         0.0855 
     98 H98       -75.5860   29.3239  -78.6232 H         1 UNK         0.0814 
     99 H99       -76.9956   28.2899  -78.5976 H         1 UNK         0.0814 
    100 H100      -75.5308   27.7635  -79.4281 H         1 UNK         0.0814 
    101 H101      -76.5944   26.1096  -76.3981 H         1 UNK         0.3105 
    102 H102      -76.8224   23.5835  -78.0400 H         1 UNK         0.0547 
    103 H103      -74.6116   22.6230  -78.5822 H         1 UNK         0.0837 
    104 H104      -74.0558   22.8735  -76.9334 H         1 UNK         0.0837 
    105 H105      -75.3419   21.7147  -77.2723 H         1 UNK         0.0837 
    106 H106      -77.4847   23.3096  -75.9713 H         1 UNK         0.3020 
    107 H107      -76.1077   23.0779  -72.9465 H         1 UNK         0.1245 
    108 H108      -77.4584   25.7957  -73.2767 H         1 UNK         0.0781 
    109 H109      -75.9488   25.4424  -72.4887 H         1 UNK         0.0781 
    110 H110      -75.9897   25.3081  -69.6723 H         1 UNK         0.0836 
    111 H111      -77.4909   25.9262  -69.0318 H         1 UNK         0.0836 
    112 H112      -78.8080   23.6286  -74.0516 H         1 UNK         0.3022 
    113 H113      -79.3410   20.2103  -74.7267 H         1 UNK         0.0747 
    114 H114      -81.2768   20.2552  -73.1995 H         1 UNK         0.0793 
    115 H115      -79.7909   20.1144  -72.2785 H         1 UNK         0.0793 
    116 H116      -80.6259   21.6558  -72.3511 H         1 UNK         0.0793 
    117 H117      -81.2608   22.2525  -74.7465 H         1 UNK         0.3047 
    118 H118      -80.9887   22.6149  -78.1856 H         1 UNK         0.0822 
    119 H119      -83.1953   23.3404  -77.3952 H         1 UNK         0.0807 
    120 H120      -82.6715   23.3232  -75.7201 H         1 UNK         0.0807 
    121 H121      -82.7639   21.8222  -76.6349 H         1 UNK         0.0807 
    122 H122      -81.0643   25.0548  -76.5066 H         1 UNK         0.2946 
    123 H123      -78.5318   26.6443  -78.2018 H         1 UNK         0.1144 
    124 H124      -79.9771   26.8594  -80.2194 H         1 UNK         0.0793 
    125 H125      -80.0289   28.3280  -79.2609 H         1 UNK         0.0793 
    126 H126      -81.3768   27.1898  -79.2083 H         1 UNK         0.0793 
    127 H127      -80.9013   27.6482  -76.8419 H         1 UNK         0.2896 
@<TRIPOS>BOND
     1    1    2 1    
     2    1   67 1    
     3    1   68 1    
     4    1   69 1    
     5    2    3 2    
     6    2    4 am   BACKBONE|DICT|INTERRES
     7    4    5 1    
     8    4   70 1    
     9    5    6 1    
    10    5   65 1    
    11    5   71 1    
    12    6    7 1    
    13    6   72 1    
    14    6   73 1    
    15    7    8 1    
    16    8    9 1    
    17    8   74 1    
    18    8   75 1    
    19    9   10 ar   
    20    9   14 ar   
    21   10   11 ar   
    22   10   76 1    
    23   11   12 ar   
    24   11   48 1    
    25   12   13 ar   
    26   12   77 1    
    27   13   14 ar   
    28   13   15 1    
    29   14   78 1    
    30   15   16 1    
    31   15   79 1    
    32   15   80 1    
    33   16   17 1    
    34   17   18 1    
    35   17   81 1    
    36   17   82 1    
    37   18   19 1    
    38   18   22 1    
    39   18   83 1    
    40   19   20 am   BACKBONE|DICT|INTERRES
    41   19   21 2    
    42   20   84 1    
    43   20   85 1    
    44   22   23 am   BACKBONE|DICT|INTERRES
    45   22   86 1    
    46   23   24 2    
    47   23   25 1    
    48   25   26 1    
    49   25   27 1    
    50   25   87 1    
    51   26   88 1    
    52   26   89 1    
    53   26   90 1    
    54   27   28 am   BACKBONE|DICT|INTERRES
    55   27   91 1    
    56   28   29 2    
    57   28   30 1    
    58   30   31 1    
    59   30   32 1    
    60   30   92 1    
    61   31   93 1    
    62   31   94 1    
    63   31   95 1    
    64   32   33 am   BACKBONE|DICT|INTERRES
    65   32   96 1    
    66   33   34 2    
    67   33   35 1    
    68   35   36 1    
    69   35   37 1    
    70   35   97 1    
    71   36   98 1    
    72   36   99 1    
    73   36  100 1    
    74   37   38 am   BACKBONE|DICT|INTERRES
    75   37  101 1    
    76   38   39 2    
    77   38   40 1    
    78   40   41 1    
    79   40   42 1    
    80   40  102 1    
    81   41  103 1    
    82   41  104 1    
    83   41  105 1    
    84   42   43 am   BACKBONE|DICT|INTERRES
    85   42  106 1    
    86   43   44 2    
    87   43   45 1    
    88   45   46 1    
    89   45   49 1    
    90   45  107 1    
    91   46   47 1    
    92   46  108 1    
    93   46  109 1    
    94   47   48 1    
    95   48  110 1    
    96   48  111 1    
    97   49   50 am   BACKBONE|DICT|INTERRES
    98   49  112 1    
    99   50   51 2    
   100   50   52 1    
   101   52   53 1    
   102   52   54 1    
   103   52  113 1    
   104   53  114 1    
   105   53  115 1    
   106   53  116 1    
   107   54   55 am   BACKBONE|DICT|INTERRES
   108   54  117 1    
   109   55   56 2    
   110   55   57 1    
   111   57   58 1    
   112   57   59 1    
   113   57  118 1    
   114   58  119 1    
   115   58  120 1    
   116   58  121 1    
   117   59   60 am   BACKBONE|DICT|INTERRES
   118   59  122 1    
   119   60   61 2    
   120   60   62 1    
   121   62   63 1    
   122   62   64 1    
   123   62  123 1    
   124   63  124 1    
   125   63  125 1    
   126   63  126 1    
   127   64   65 am   BACKBONE|DICT|INTERRES
   128   64  127 1    
   129   65   66 2    
@<TRIPOS>SUBSTRUCTURE
     1 UNK         1 GROUP             0       ****    0 ROOT    
