@<TRIPOS>MOLECULE
3R135
127   129    1
SMALL
USER_CHARGES


@<TRIPOS>ATOM
      1 CA        -84.1243   28.1247  -71.6532 C.3       0 UNK        -0.1998 
      2 C         -83.4763   28.2888  -73.0197 C.2       0 UNK         0.4909 
      3 O         -84.1767   28.2971  -74.0324 O.2       0 UNK        -0.5240 
      4 N         -82.1440   28.4237  -73.0530 N.am      1 UNK        -0.4739 
      5 CA        -81.3442   28.5709  -74.2771 C.3       1 UNK         0.0864 
      6 C6        -79.9060   29.0638  -73.9764 C.3       11 UNK        -0.0881 
      7 S7        -79.8722   30.7387  -73.2466 S.3       11 UNK        -0.2682 
      8 C8        -79.7875   30.4158  -71.4532 C.3       11 UNK         0.0289 
      9 C9        -78.4113   29.9398  -71.0118 C.ar      11 UNK        -0.0687 
     10 C10       -78.1438   28.5743  -70.8843 C.ar      11 UNK        -0.0823 
     11 C11       -76.8758   28.1265  -70.4970 C.ar      11 UNK        -0.0830 
     12 C12       -75.8982   29.0691  -70.1628 C.ar      11 UNK        -0.1021 
     13 C13       -76.1483   30.4416  -70.2863 C.ar      11 UNK        -0.0753 
     14 C14       -77.4091   30.8675  -70.7149 C.ar      11 UNK        -0.0933 
     15 C15       -75.0739   31.4749  -69.9519 C.3       11 UNK         0.0166 
     16 S16       -73.4206   31.0603  -70.6072 S.3       11 UNK        -0.2615 
     17 C17       -73.5798   31.4089  -72.3976 C.3       11 UNK        -0.0865 
     18 CA        -74.4130   30.3707  -73.2073 C.3       10 UNK         0.0862 
     19 C         -74.4418   30.6732  -74.7342 C.2       10 UNK         0.5551 
     20 N         -74.4497   29.6802  -75.6115 N.am      10 UNK        -0.7319 
     21 O         -74.4765   31.8346  -75.1320 O.2       10 UNK        -0.5018 
     22 N         -74.1828   28.9691  -72.8127 N.am      10 UNK        -0.4509 
     23 C         -73.0996   28.1877  -72.9033 C.2       10 UNK         0.4899 
     24 O         -73.1042   27.0550  -72.4188 O.2       10 UNK        -0.4839 
     25 CA        -71.8170   28.6667  -73.6050 C.3       9 UNK         0.0222 
     26 CB        -70.7251   29.0065  -72.5758 C.3       9 UNK        -0.1966 
     27 N         -71.3559   27.5498  -74.4240 N.am      9 UNK        -0.4218 
     28 C         -71.2647   27.5313  -75.7575 C.2       9 UNK         0.5020 
     29 O         -71.4010   28.5238  -76.4740 O.2       9 UNK        -0.5274 
     30 CA        -70.9802   26.1730  -76.4149 C.3       8 UNK         0.0270 
     31 CB        -70.5750   25.0511  -75.4331 C.3       8 UNK        -0.1976 
     32 N         -72.1662   25.7586  -77.1612 N.am      8 UNK        -0.4313 
     33 C         -72.1455   25.1183  -78.3374 C.2       8 UNK         0.5041 
     34 O         -71.1044   24.8344  -78.9333 O.2       8 UNK        -0.5577 
     35 CA        -73.4879   24.6860  -78.9637 C.3       7 UNK         0.0284 
     36 CB        -73.6278   23.1548  -78.9151 C.3       7 UNK        -0.1958 
     37 N         -74.6717   25.2847  -78.3434 N.am      7 UNK        -0.4454 
     38 C         -75.0392   26.5672  -78.4619 C.2       7 UNK         0.5089 
     39 O         -74.4470   27.3870  -79.1637 O.2       7 UNK        -0.5125 
     40 CA        -76.2564   27.0220  -77.6346 C.3       6 UNK         0.0408 
     41 CB        -77.5446   26.8986  -78.4609 C.3       6 UNK        -0.1791 
     42 N         -76.4239   26.3081  -76.3628 N.am      6 UNK        -0.4762 
     43 C         -75.5226   26.2721  -75.3698 C.2       6 UNK         0.5007 
     44 O         -74.4100   26.7888  -75.4478 O.2       6 UNK        -0.5032 
     45 CA        -75.9255   25.5248  -74.0883 C.3       5 UNK         0.0783 
     46 C46       -76.9133   26.3781  -73.2570 C.3       11 UNK        -0.0857 
     47 S47       -77.3884   25.5971  -71.6767 S.3       11 UNK        -0.2512 
     48 C48       -76.5311   26.6369  -70.4368 C.3       11 UNK         0.0225 
     49 N         -76.4684   24.2140  -74.4417 N.am      5 UNK        -0.4615 
     50 C         -75.7216   23.1394  -74.7248 C.2       4 UNK         0.5053 
     51 O         -74.4951   23.1119  -74.6254 O.2       4 UNK        -0.5105 
     52 CA        -76.4628   21.8836  -75.2186 C.3       4 UNK         0.0263 
     53 CB        -76.8193   20.9716  -74.0338 C.3       4 UNK        -0.1981 
     54 N         -77.6783   22.1844  -75.9807 N.am      4 UNK        -0.4224 
     55 C         -77.7018   22.8219  -77.1601 C.2       3 UNK         0.4895 
     56 O         -76.6945   23.2007  -77.7566 O.2       3 UNK        -0.5091 
     57 CA        -79.0882   23.1348  -77.7502 C.3       3 UNK         0.0250 
     58 CB        -79.6027   21.9417  -78.5713 C.3       3 UNK        -0.1996 
     59 N         -80.1001   23.5215  -76.7577 N.am      3 UNK        -0.4254 
     60 C         -79.9796   24.5223  -75.8731 C.2       2 UNK         0.5004 
     61 O         -78.9554   25.1940  -75.7330 O.2       2 UNK        -0.5226 
     62 CA        -81.1878   24.7678  -74.9532 C.3       2 UNK         0.0269 
     63 CB        -81.1739   23.7629  -73.7889 C.3       2 UNK        -0.1926 
     64 N         -81.2237   26.1225  -74.3940 N.am      2 UNK        -0.4687 
     65 C         -81.3146   27.2630  -75.0961 C.2       1 UNK         0.5165 
     66 O         -81.4062   27.3120  -76.3238 O.2       1 UNK        -0.5079 
     67 H67       -84.6559   27.1748  -71.6021 H         1 UNK         0.0900 
     68 H68       -84.8416   28.9264  -71.4798 H         1 UNK         0.0900 
     69 H69       -83.3909   28.1465  -70.8473 H         1 UNK         0.0900 
     70 H70       -81.6273   28.4213  -72.1871 H         1 UNK         0.2959 
     71 H71       -81.8326   29.3212  -74.9037 H         1 UNK         0.1079 
     72 H72       -79.3800   28.3612  -73.3322 H         1 UNK         0.0837 
     73 H73       -79.3237   29.1089  -74.8993 H         1 UNK         0.0837 
     74 H74       -80.0353   31.3385  -70.9261 H         1 UNK         0.0685 
     75 H75       -80.5525   29.6958  -71.1636 H         1 UNK         0.0685 
     76 H76       -78.9214   27.8575  -71.1056 H         1 UNK         0.1434 
     77 H77       -74.9238   28.7339  -69.8333 H         1 UNK         0.1329 
     78 H78       -77.6165   31.9245  -70.8134 H         1 UNK         0.1335 
     79 H79       -75.0041   31.5537  -68.8664 H         1 UNK         0.0680 
     80 H80       -75.3570   32.4643  -70.3146 H         1 UNK         0.0680 
     81 H81       -72.5729   31.4845  -72.8094 H         1 UNK         0.1032 
     82 H82       -74.0129   32.4044  -72.5117 H         1 UNK         0.1032 
     83 H83       -75.4514   30.5370  -72.9233 H         1 UNK         0.0461 
     84 H84       -74.4521   29.9055  -76.5927 H         1 UNK         0.3453 
     85 H85       -74.3959   28.7090  -75.3246 H         1 UNK         0.3453 
     86 H86       -74.9712   28.5750  -72.3232 H         1 UNK         0.2984 
     87 H87       -72.0028   29.5434  -74.2221 H         1 UNK         0.0554 
     88 H88       -69.7975   29.2997  -73.0674 H         1 UNK         0.0847 
     89 H89       -70.5040   28.1600  -71.9243 H         1 UNK         0.0847 
     90 H90       -71.0268   29.8348  -71.9358 H         1 UNK         0.0847 
     91 H91       -71.3083   26.6656  -73.9357 H         1 UNK         0.3141 
     92 H92       -70.1487   26.3414  -77.1026 H         1 UNK         0.0743 
     93 H93       -69.7113   25.3399  -74.8323 H         1 UNK         0.0784 
     94 H94       -71.3882   24.7854  -74.7557 H         1 UNK         0.0784 
     95 H95       -70.2949   24.1466  -75.9736 H         1 UNK         0.0784 
     96 H96       -73.0574   26.0215  -76.7488 H         1 UNK         0.3213 
     97 H97       -73.4645   24.9926  -80.0115 H         1 UNK         0.0855 
     98 H98       -72.7715   22.6647  -79.3804 H         1 UNK         0.0814 
     99 H99       -74.5179   22.8212  -79.4488 H         1 UNK         0.0814 
    100 H100      -73.6964   22.7906  -77.8889 H         1 UNK         0.0814 
    101 H101      -75.2717   24.6617  -77.8110 H         1 UNK         0.3105 
    102 H102      -76.1124   28.0764  -77.3925 H         1 UNK         0.0547 
    103 H103      -77.4900   27.5133  -79.3603 H         1 UNK         0.0837 
    104 H104      -77.7155   25.8715  -78.7806 H         1 UNK         0.0837 
    105 H105      -78.4176   27.2257  -77.8951 H         1 UNK         0.0837 
    106 H106      -77.3270   25.8614  -76.2072 H         1 UNK         0.3020 
    107 H107      -75.0191   25.3839  -73.4939 H         1 UNK         0.1245 
    108 H108      -77.8308   26.5594  -73.8179 H         1 UNK         0.0781 
    109 H109      -76.4899   27.3634  -73.0642 H         1 UNK         0.0781 
    110 H110      -75.4565   26.4956  -70.5658 H         1 UNK         0.0836 
    111 H111      -76.7740   26.2639  -69.4411 H         1 UNK         0.0836 
    112 H112      -77.4662   24.1811  -74.6070 H         1 UNK         0.3022 
    113 H113      -75.7826   21.3405  -75.8784 H         1 UNK         0.0747 
    114 H114      -77.2709   20.0386  -74.3717 H         1 UNK         0.0793 
    115 H115      -75.9277   20.7094  -73.4623 H         1 UNK         0.0793 
    116 H116      -77.5157   21.4546  -73.3470 H         1 UNK         0.0793 
    117 H117      -78.5579   21.9148  -75.5654 H         1 UNK         0.3047 
    118 H118      -78.9685   23.9799  -78.4290 H         1 UNK         0.0822 
    119 H119      -80.5277   22.1875  -79.0933 H         1 UNK         0.0807 
    120 H120      -79.7914   21.0691  -77.9446 H         1 UNK         0.0807 
    121 H121      -78.8752   21.6472  -79.3293 H         1 UNK         0.0807 
    122 H122      -80.9693   23.0076  -76.7873 H         1 UNK         0.2946 
    123 H123      -82.0986   24.6281  -75.5396 H         1 UNK         0.1144 
    124 H124      -82.0458   23.8874  -73.1464 H         1 UNK         0.0793 
    125 H125      -80.2823   23.8769  -73.1700 H         1 UNK         0.0793 
    126 H126      -81.1894   22.7344  -74.1517 H         1 UNK         0.0793 
    127 H127      -81.1554   26.1928  -73.3901 H         1 UNK         0.2896 
@<TRIPOS>BOND
     1    1    2 1    
     2    1   67 1    
     3    1   68 1    
     4    1   69 1    
     5    2    3 2    
     6    2    4 am   BACKBONE|DICT|INTERRES
     7    4    5 1    
     8    4   70 1    
     9    5    6 1    
    10    5   65 1    
    11    5   71 1    
    12    6    7 1    
    13    6   72 1    
    14    6   73 1    
    15    7    8 1    
    16    8    9 1    
    17    8   74 1    
    18    8   75 1    
    19    9   10 ar   
    20    9   14 ar   
    21   10   11 ar   
    22   10   76 1    
    23   11   12 ar   
    24   11   48 1    
    25   12   13 ar   
    26   12   77 1    
    27   13   14 ar   
    28   13   15 1    
    29   14   78 1    
    30   15   16 1    
    31   15   79 1    
    32   15   80 1    
    33   16   17 1    
    34   17   18 1    
    35   17   81 1    
    36   17   82 1    
    37   18   19 1    
    38   18   22 1    
    39   18   83 1    
    40   19   20 am   BACKBONE|DICT|INTERRES
    41   19   21 2    
    42   20   84 1    
    43   20   85 1    
    44   22   23 am   BACKBONE|DICT|INTERRES
    45   22   86 1    
    46   23   24 2    
    47   23   25 1    
    48   25   26 1    
    49   25   27 1    
    50   25   87 1    
    51   26   88 1    
    52   26   89 1    
    53   26   90 1    
    54   27   28 am   BACKBONE|DICT|INTERRES
    55   27   91 1    
    56   28   29 2    
    57   28   30 1    
    58   30   31 1    
    59   30   32 1    
    60   30   92 1    
    61   31   93 1    
    62   31   94 1    
    63   31   95 1    
    64   32   33 am   BACKBONE|DICT|INTERRES
    65   32   96 1    
    66   33   34 2    
    67   33   35 1    
    68   35   36 1    
    69   35   37 1    
    70   35   97 1    
    71   36   98 1    
    72   36   99 1    
    73   36  100 1    
    74   37   38 am   BACKBONE|DICT|INTERRES
    75   37  101 1    
    76   38   39 2    
    77   38   40 1    
    78   40   41 1    
    79   40   42 1    
    80   40  102 1    
    81   41  103 1    
    82   41  104 1    
    83   41  105 1    
    84   42   43 am   BACKBONE|DICT|INTERRES
    85   42  106 1    
    86   43   44 2    
    87   43   45 1    
    88   45   46 1    
    89   45   49 1    
    90   45  107 1    
    91   46   47 1    
    92   46  108 1    
    93   46  109 1    
    94   47   48 1    
    95   48  110 1    
    96   48  111 1    
    97   49   50 am   BACKBONE|DICT|INTERRES
    98   49  112 1    
    99   50   51 2    
   100   50   52 1    
   101   52   53 1    
   102   52   54 1    
   103   52  113 1    
   104   53  114 1    
   105   53  115 1    
   106   53  116 1    
   107   54   55 am   BACKBONE|DICT|INTERRES
   108   54  117 1    
   109   55   56 2    
   110   55   57 1    
   111   57   58 1    
   112   57   59 1    
   113   57  118 1    
   114   58  119 1    
   115   58  120 1    
   116   58  121 1    
   117   59   60 am   BACKBONE|DICT|INTERRES
   118   59  122 1    
   119   60   61 2    
   120   60   62 1    
   121   62   63 1    
   122   62   64 1    
   123   62  123 1    
   124   63  124 1    
   125   63  125 1    
   126   63  126 1    
   127   64   65 am   BACKBONE|DICT|INTERRES
   128   64  127 1    
   129   65   66 2    
@<TRIPOS>SUBSTRUCTURE
     1 UNK         1 GROUP             0       ****    0 ROOT    
