@<TRIPOS>MOLECULE
3R135
127   129    1
SMALL
USER_CHARGES


@<TRIPOS>ATOM
      1 CA        -84.4735   29.7148  -73.7087 C.3       0 UNK        -0.1998 
      2 C         -83.2191   28.9569  -73.3005 C.2       0 UNK         0.4909 
      3 O         -82.2877   29.5604  -72.7710 O.2       0 UNK        -0.5240 
      4 N         -83.1911   27.6432  -73.5442 N.am      1 UNK        -0.4739 
      5 CA        -82.0717   26.7385  -73.2821 C.3       1 UNK         0.0864 
      6 C6        -81.9373   26.3710  -71.7746 C.3       11 UNK        -0.0881 
      7 S7        -80.3544   25.5495  -71.3525 S.3       11 UNK        -0.2682 
      8 C8        -79.6374   26.6406  -70.0818 C.3       11 UNK         0.0289 
      9 C9        -78.6673   27.6585  -70.6669 C.ar      11 UNK        -0.0687 
     10 C10       -79.1414   28.7135  -71.4501 C.ar      11 UNK        -0.0823 
     11 C11       -78.2636   29.6764  -71.9543 C.ar      11 UNK        -0.0830 
     12 C12       -76.9087   29.6056  -71.6268 C.ar      11 UNK        -0.1021 
     13 C13       -76.4090   28.5341  -70.8826 C.ar      11 UNK        -0.0753 
     14 C14       -77.2956   27.5621  -70.4050 C.ar      11 UNK        -0.0933 
     15 C15       -74.9161   28.4269  -70.5965 C.3       11 UNK         0.0166 
     16 S16       -73.9433   28.1854  -72.1207 S.3       11 UNK        -0.2615 
     17 C17       -73.6578   29.9090  -72.6706 C.3       11 UNK        -0.0865 
     18 CA        -72.2490   30.1559  -73.2655 C.3       10 UNK         0.0862 
     19 C         -71.1139   29.9754  -72.2120 C.2       10 UNK         0.5551 
     20 N         -70.1972   29.0262  -72.3675 N.am      10 UNK        -0.7319 
     21 O         -71.0601   30.7250  -71.2400 O.2       10 UNK        -0.5018 
     22 N         -72.0686   29.4062  -74.5142 N.am      10 UNK        -0.4509 
     23 C         -71.1413   29.6695  -75.4427 C.2       10 UNK         0.4899 
     24 O         -70.4073   30.6587  -75.4102 O.2       10 UNK        -0.4839 
     25 CA        -71.0059   28.6527  -76.5955 C.3       9 UNK         0.0222 
     26 CB        -69.5883   28.6382  -77.2045 C.3       9 UNK        -0.1966 
     27 N         -71.4227   27.2876  -76.2439 N.am      9 UNK        -0.4218 
     28 C         -70.9540   26.5176  -75.2463 C.2       9 UNK         0.5020 
     29 O         -70.0771   26.8830  -74.4611 O.2       9 UNK        -0.5274 
     30 CA        -71.5799   25.1219  -75.0627 C.3       8 UNK         0.0270 
     31 CB        -72.0828   24.9269  -73.6212 C.3       8 UNK        -0.1976 
     32 N         -72.6856   24.8803  -75.9960 N.am      8 UNK        -0.4313 
     33 C         -72.5509   24.2605  -77.1763 C.2       8 UNK         0.5041 
     34 O         -71.4942   23.7653  -77.5706 O.2       8 UNK        -0.5577 
     35 CA        -73.7842   24.2002  -78.0933 C.3       7 UNK         0.0284 
     36 CB        -74.6235   22.9461  -77.8018 C.3       7 UNK        -0.1958 
     37 N         -74.6397   25.3908  -78.0489 N.am      7 UNK        -0.4454 
     38 C         -74.2658   26.6183  -78.4394 C.2       7 UNK         0.5089 
     39 O         -73.1111   26.9163  -78.7423 O.2       7 UNK        -0.5125 
     40 CA        -75.3595   27.6938  -78.5071 C.3       6 UNK         0.0408 
     41 CB        -76.2600   27.4723  -79.7331 C.3       6 UNK        -0.1791 
     42 N         -76.1769   27.6899  -77.2973 N.am      6 UNK        -0.4762 
     43 C         -75.9541   28.4651  -76.2263 C.2       6 UNK         0.5007 
     44 O         -75.0702   29.3208  -76.1706 O.2       6 UNK        -0.5032 
     45 CA        -76.8495   28.2076  -74.9928 C.3       5 UNK         0.0783 
     46 C46       -78.1614   29.0382  -75.0578 C.3       11 UNK        -0.0857 
     47 S47       -77.9265   30.7622  -74.5001 S.3       11 UNK        -0.2512 
     48 C48       -78.7709   30.7750  -72.8789 C.3       11 UNK         0.0225 
     49 N         -77.1312   26.7832  -74.7768 N.am      5 UNK        -0.4615 
     50 C         -76.2152   25.8099  -74.6666 C.2       4 UNK         0.5053 
     51 O         -75.0003   25.9861  -74.7415 O.2       4 UNK        -0.5105 
     52 CA        -76.7468   24.3765  -74.5205 C.3       4 UNK         0.0263 
     53 CB        -77.0414   24.0732  -73.0436 C.3       4 UNK        -0.1981 
     54 N         -77.9336   24.0679  -75.3294 N.am      4 UNK        -0.4224 
     55 C         -78.1256   24.3176  -76.6337 C.2       3 UNK         0.4895 
     56 O         -77.3208   24.9275  -77.3393 O.2       3 UNK        -0.5091 
     57 CA        -79.4407   23.8361  -77.2768 C.3       3 UNK         0.0250 
     58 CB        -79.2134   22.5293  -78.0612 C.3       3 UNK        -0.1996 
     59 N         -80.5916   23.7241  -76.3646 N.am      3 UNK        -0.4254 
     60 C         -80.7809   22.8826  -75.3381 C.2       2 UNK         0.5004 
     61 O         -79.9493   22.0516  -74.9700 O.2       2 UNK        -0.5226 
     62 CA        -82.0826   23.0729  -74.5409 C.3       2 UNK         0.0269 
     63 CB        -82.3626   21.9018  -73.5797 C.3       2 UNK        -0.1926 
     64 N         -82.0230   24.3135  -73.7664 N.am      2 UNK        -0.4687 
     65 C         -82.2360   25.5446  -74.2475 C.2       1 UNK         0.5165 
     66 O         -82.5559   25.7549  -75.4212 O.2       1 UNK        -0.5079 
     67 H67       -85.2257   29.0550  -74.1437 H         1 UNK         0.0900 
     68 H68       -84.9138   30.2060  -72.8399 H         1 UNK         0.0900 
     69 H69       -84.2255   30.4805  -74.4451 H         1 UNK         0.0900 
     70 H70       -83.9622   27.2121  -74.0380 H         1 UNK         0.2959 
     71 H71       -81.1568   27.2483  -73.5918 H         1 UNK         0.1079 
     72 H72       -82.7644   25.7336  -71.4563 H         1 UNK         0.0837 
     73 H73       -82.0294   27.2747  -71.1715 H         1 UNK         0.0837 
     74 H74       -79.1237   26.0125  -69.3522 H         1 UNK         0.0685 
     75 H75       -80.4245   27.1535  -69.5277 H         1 UNK         0.0685 
     76 H76       -80.1955   28.7777  -71.6717 H         1 UNK         0.1434 
     77 H77       -76.2399   30.3674  -71.9968 H         1 UNK         0.1329 
     78 H78       -76.9194   26.7371  -69.8157 H         1 UNK         0.1335 
     79 H79       -74.7195   27.5814  -69.9357 H         1 UNK         0.0680 
     80 H80       -74.5748   29.3130  -70.0600 H         1 UNK         0.0680 
     81 H81       -73.8273   30.5971  -71.8409 H         1 UNK         0.1032 
     82 H82       -74.4112   30.1584  -73.4194 H         1 UNK         0.1032 
     83 H83       -72.2155   31.2124  -73.5388 H         1 UNK         0.0461 
     84 H84       -70.2337   28.3889  -73.1566 H         1 UNK         0.3453 
     85 H85       -69.4686   28.9282  -71.6794 H         1 UNK         0.3453 
     86 H86       -72.6337   28.5756  -74.6130 H         1 UNK         0.2984 
     87 H87       -71.6963   28.9870  -77.3710 H         1 UNK         0.0554 
     88 H88       -69.3169   29.6196  -77.5952 H         1 UNK         0.0847 
     89 H89       -69.5207   27.9331  -78.0329 H         1 UNK         0.0847 
     90 H90       -68.8351   28.3622  -76.4658 H         1 UNK         0.0847 
     91 H91       -72.1257   26.8904  -76.8568 H         1 UNK         0.3141 
     92 H92       -70.7850   24.3931  -75.2335 H         1 UNK         0.0743 
     93 H93       -71.2606   24.9926  -72.9073 H         1 UNK         0.0784 
     94 H94       -72.8129   25.6856  -73.3410 H         1 UNK         0.0784 
     95 H95       -72.5477   23.9497  -73.4902 H         1 UNK         0.0784 
     96 H96       -73.5904   25.2645  -75.7244 H         1 UNK         0.3213 
     97 H97       -73.4130   24.1173  -79.1172 H         1 UNK         0.0855 
     98 H98       -75.0365   22.9605  -76.7947 H         1 UNK         0.0814 
     99 H99       -74.0186   22.0427  -77.8921 H         1 UNK         0.0814 
    100 H100      -75.4536   22.8512  -78.5023 H         1 UNK         0.0814 
    101 H101      -75.6160   25.2378  -77.8000 H         1 UNK         0.3105 
    102 H102      -74.8719   28.6642  -78.6241 H         1 UNK         0.0547 
    103 H103      -77.0001   28.2670  -79.8275 H         1 UNK         0.0837 
    104 H104      -75.6727   27.4668  -80.6523 H         1 UNK         0.0837 
    105 H105      -76.7948   26.5229  -79.6817 H         1 UNK         0.0837 
    106 H106      -76.8699   26.9531  -77.2245 H         1 UNK         0.3020 
    107 H107      -76.2745   28.5230  -74.1207 H         1 UNK         0.1245 
    108 H108      -78.9325   28.5841  -74.4341 H         1 UNK         0.0781 
    109 H109      -78.5799   29.0458  -76.0662 H         1 UNK         0.0781 
    110 H110      -79.8452   30.6809  -73.0433 H         1 UNK         0.0836 
    111 H111      -78.6159   31.7441  -72.4031 H         1 UNK         0.0836 
    112 H112      -78.1026   26.5208  -74.7154 H         1 UNK         0.3022 
    113 H113      -75.9544   23.7021  -74.8454 H         1 UNK         0.0747 
    114 H114      -77.3363   23.0334  -72.9001 H         1 UNK         0.0793 
    115 H115      -76.1594   24.2486  -72.4255 H         1 UNK         0.0793 
    116 H116      -77.8393   24.7059  -72.6553 H         1 UNK         0.0793 
    117 H117      -78.6354   23.4824  -74.8869 H         1 UNK         0.3047 
    118 H118      -79.7186   24.6053  -77.9996 H         1 UNK         0.0822 
    119 H119      -78.4303   22.6572  -78.8101 H         1 UNK         0.0807 
    120 H120      -80.1167   22.2199  -78.5873 H         1 UNK         0.0807 
    121 H121      -78.9055   21.7096  -77.4110 H         1 UNK         0.0807 
    122 H122      -81.3128   24.4254  -76.5016 H         1 UNK         0.2946 
    123 H123      -82.9082   23.1265  -75.2555 H         1 UNK         0.1144 
    124 H124      -83.3183   22.0278  -73.0704 H         1 UNK         0.0793 
    125 H125      -81.5871   21.8068  -72.8177 H         1 UNK         0.0793 
    126 H126      -82.4070   20.9552  -74.1203 H         1 UNK         0.0793 
    127 H127      -81.7066   24.2332  -72.8079 H         1 UNK         0.2896 
@<TRIPOS>BOND
     1    1    2 1    
     2    1   67 1    
     3    1   68 1    
     4    1   69 1    
     5    2    3 2    
     6    2    4 am   BACKBONE|DICT|INTERRES
     7    4    5 1    
     8    4   70 1    
     9    5    6 1    
    10    5   65 1    
    11    5   71 1    
    12    6    7 1    
    13    6   72 1    
    14    6   73 1    
    15    7    8 1    
    16    8    9 1    
    17    8   74 1    
    18    8   75 1    
    19    9   10 ar   
    20    9   14 ar   
    21   10   11 ar   
    22   10   76 1    
    23   11   12 ar   
    24   11   48 1    
    25   12   13 ar   
    26   12   77 1    
    27   13   14 ar   
    28   13   15 1    
    29   14   78 1    
    30   15   16 1    
    31   15   79 1    
    32   15   80 1    
    33   16   17 1    
    34   17   18 1    
    35   17   81 1    
    36   17   82 1    
    37   18   19 1    
    38   18   22 1    
    39   18   83 1    
    40   19   20 am   BACKBONE|DICT|INTERRES
    41   19   21 2    
    42   20   84 1    
    43   20   85 1    
    44   22   23 am   BACKBONE|DICT|INTERRES
    45   22   86 1    
    46   23   24 2    
    47   23   25 1    
    48   25   26 1    
    49   25   27 1    
    50   25   87 1    
    51   26   88 1    
    52   26   89 1    
    53   26   90 1    
    54   27   28 am   BACKBONE|DICT|INTERRES
    55   27   91 1    
    56   28   29 2    
    57   28   30 1    
    58   30   31 1    
    59   30   32 1    
    60   30   92 1    
    61   31   93 1    
    62   31   94 1    
    63   31   95 1    
    64   32   33 am   BACKBONE|DICT|INTERRES
    65   32   96 1    
    66   33   34 2    
    67   33   35 1    
    68   35   36 1    
    69   35   37 1    
    70   35   97 1    
    71   36   98 1    
    72   36   99 1    
    73   36  100 1    
    74   37   38 am   BACKBONE|DICT|INTERRES
    75   37  101 1    
    76   38   39 2    
    77   38   40 1    
    78   40   41 1    
    79   40   42 1    
    80   40  102 1    
    81   41  103 1    
    82   41  104 1    
    83   41  105 1    
    84   42   43 am   BACKBONE|DICT|INTERRES
    85   42  106 1    
    86   43   44 2    
    87   43   45 1    
    88   45   46 1    
    89   45   49 1    
    90   45  107 1    
    91   46   47 1    
    92   46  108 1    
    93   46  109 1    
    94   47   48 1    
    95   48  110 1    
    96   48  111 1    
    97   49   50 am   BACKBONE|DICT|INTERRES
    98   49  112 1    
    99   50   51 2    
   100   50   52 1    
   101   52   53 1    
   102   52   54 1    
   103   52  113 1    
   104   53  114 1    
   105   53  115 1    
   106   53  116 1    
   107   54   55 am   BACKBONE|DICT|INTERRES
   108   54  117 1    
   109   55   56 2    
   110   55   57 1    
   111   57   58 1    
   112   57   59 1    
   113   57  118 1    
   114   58  119 1    
   115   58  120 1    
   116   58  121 1    
   117   59   60 am   BACKBONE|DICT|INTERRES
   118   59  122 1    
   119   60   61 2    
   120   60   62 1    
   121   62   63 1    
   122   62   64 1    
   123   62  123 1    
   124   63  124 1    
   125   63  125 1    
   126   63  126 1    
   127   64   65 am   BACKBONE|DICT|INTERRES
   128   64  127 1    
   129   65   66 2    
@<TRIPOS>SUBSTRUCTURE
     1 UNK         1 GROUP             0       ****    0 ROOT    
