@<TRIPOS>MOLECULE
3R135
127   129    1
SMALL
USER_CHARGES


@<TRIPOS>ATOM
      1 CA        -85.2230   27.4479  -73.2489 C.3       0 UNK        -0.1998 
      2 C         -85.2004   26.1242  -72.4871 C.2       0 UNK         0.4909 
      3 O         -86.2647   25.5936  -72.1742 O.2       0 UNK        -0.5240 
      4 N         -84.0328   25.5566  -72.1495 N.am      1 UNK        -0.4739 
      5 CA        -82.6847   26.0010  -72.5184 C.3       1 UNK         0.0864 
      6 C6        -81.6184   25.2643  -71.6644 C.3       11 UNK        -0.0881 
      7 S7        -79.8998   25.7578  -72.0327 S.3       11 UNK        -0.2682 
      8 C8        -79.6552   27.1436  -70.8815 C.3       11 UNK         0.0289 
      9 C9        -78.5328   28.0374  -71.3816 C.ar      11 UNK        -0.0687 
     10 C10       -78.8191   29.1053  -72.2359 C.ar      11 UNK        -0.0823 
     11 C11       -77.7898   29.8949  -72.7571 C.ar      11 UNK        -0.0830 
     12 C12       -76.4654   29.6105  -72.4118 C.ar      11 UNK        -0.1021 
     13 C13       -76.1667   28.5443  -71.5567 C.ar      11 UNK        -0.0753 
     14 C14       -77.2065   27.7725  -71.0304 C.ar      11 UNK        -0.0933 
     15 C15       -74.7198   28.1868  -71.2560 C.3       11 UNK         0.0166 
     16 S16       -73.8380   29.5477  -70.4300 S.3       11 UNK        -0.2615 
     17 C17       -72.1150   28.9549  -70.5314 C.3       11 UNK        -0.0865 
     18 CA        -71.3432   29.5862  -71.7197 C.3       10 UNK         0.0862 
     19 C         -69.8395   29.2115  -71.6589 C.2       10 UNK         0.5551 
     20 N         -68.9778   30.1444  -71.2787 N.am      10 UNK        -0.7319 
     21 O         -69.4595   28.0691  -71.9068 O.2       10 UNK        -0.5018 
     22 N         -71.9324   29.1957  -73.0062 N.am      10 UNK        -0.4509 
     23 C         -71.7349   29.8219  -74.1717 C.2       10 UNK         0.4899 
     24 O         -71.0823   30.8603  -74.2905 O.2       10 UNK        -0.4839 
     25 CA        -72.3971   29.1721  -75.4042 C.3       9 UNK         0.0222 
     26 CB        -71.8624   29.7299  -76.7410 C.3       9 UNK        -0.1966 
     27 N         -72.3307   27.7035  -75.3755 N.am      9 UNK        -0.4218 
     28 C         -71.2198   26.9492  -75.3801 C.2       9 UNK         0.5020 
     29 O         -70.0767   27.3953  -75.4826 O.2       9 UNK        -0.5274 
     30 CA        -71.4143   25.4356  -75.2354 C.3       8 UNK         0.0270 
     31 CB        -71.6746   25.0629  -73.7643 C.3       8 UNK        -0.1976 
     32 N         -72.5136   24.9459  -76.0724 N.am      8 UNK        -0.4313 
     33 C         -72.3415   24.2615  -77.2107 C.2       8 UNK         0.5041 
     34 O         -71.2398   24.0192  -77.7067 O.2       8 UNK        -0.5577 
     35 CA        -73.5997   23.7124  -77.9008 C.3       7 UNK         0.0284 
     36 CB        -74.1227   22.4700  -77.1610 C.3       7 UNK        -0.1958 
     37 N         -74.6780   24.6919  -78.0535 N.am      7 UNK        -0.4454 
     38 C         -74.6661   25.6820  -78.9580 C.2       7 UNK         0.5089 
     39 O         -73.7011   25.9441  -79.6766 O.2       7 UNK        -0.5125 
     40 CA        -75.9621   26.4958  -79.1171 C.3       6 UNK         0.0408 
     41 CB        -77.0318   25.6835  -79.8651 C.3       6 UNK        -0.1791 
     42 N         -76.4994   26.9406  -77.8344 N.am      6 UNK        -0.4762 
     43 C         -75.9804   27.9337  -77.1001 C.2       6 UNK         0.5007 
     44 O         -75.0384   28.6348  -77.4657 O.2       6 UNK        -0.5032 
     45 CA        -76.5998   28.1514  -75.7054 C.3       5 UNK         0.0783 
     46 C46       -77.8514   29.0692  -75.7677 C.3       11 UNK        -0.0857 
     47 S47       -77.4107   30.7981  -75.3825 S.3       11 UNK        -0.2512 
     48 C48       -78.1161   31.0353  -73.7148 C.3       11 UNK         0.0225 
     49 N         -76.8685   26.8754  -75.0367 N.am      5 UNK        -0.4615 
     50 C         -75.9161   26.0152  -74.6519 C.2       4 UNK         0.5053 
     51 O         -74.7107   26.2485  -74.7488 O.2       4 UNK        -0.5105 
     52 CA        -76.3676   24.6450  -74.1213 C.3       4 UNK         0.0263 
     53 CB        -76.3335   24.6061  -72.5882 C.3       4 UNK        -0.1981 
     54 N         -77.6926   24.2496  -74.6109 N.am      4 UNK        -0.4224 
     55 C         -77.9249   23.8696  -75.8757 C.2       3 UNK         0.4895 
     56 O         -77.0503   23.8057  -76.7394 O.2       3 UNK        -0.5091 
     57 CA        -79.3801   23.5583  -76.2558 C.3       3 UNK         0.0250 
     58 CB        -79.8699   22.2749  -75.5652 C.3       3 UNK        -0.1996 
     59 N         -80.3095   24.6547  -75.9715 N.am      3 UNK        -0.4254 
     60 C         -80.2176   25.9098  -76.4306 C.2       2 UNK         0.5004 
     61 O         -79.2798   26.3196  -77.1138 O.2       2 UNK        -0.5226 
     62 CA        -81.3438   26.8906  -76.0538 C.3       2 UNK         0.0269 
     63 CB        -82.5250   26.7844  -77.0378 C.3       2 UNK        -0.1926 
     64 N         -81.7904   26.8063  -74.6539 N.am      2 UNK        -0.4687 
     65 C         -82.4434   25.8126  -74.0321 C.2       1 UNK         0.5165 
     66 O         -82.8046   24.7703  -74.5830 O.2       1 UNK        -0.5079 
     67 H67       -86.2236   27.8794  -73.2255 H         1 UNK         0.0900 
     68 H68       -84.5465   28.1791  -72.8089 H         1 UNK         0.0900 
     69 H69       -84.9542   27.2980  -74.2941 H         1 UNK         0.0900 
     70 H70       -84.0672   24.6725  -71.6624 H         1 UNK         0.2959 
     71 H71       -82.6087   27.0641  -72.2842 H         1 UNK         0.1079 
     72 H72       -81.8098   25.4263  -70.6022 H         1 UNK         0.0837 
     73 H73       -81.6925   24.1858  -71.8180 H         1 UNK         0.0837 
     74 H74       -80.5765   27.7206  -70.7884 H         1 UNK         0.0685 
     75 H75       -79.4266   26.7571  -69.8872 H         1 UNK         0.0685 
     76 H76       -79.8448   29.3074  -72.5116 H         1 UNK         0.1434 
     77 H77       -75.6634   30.2058  -72.8269 H         1 UNK         0.1329 
     78 H78       -76.9836   26.9392  -70.3783 H         1 UNK         0.1335 
     79 H79       -74.6598   27.2954  -70.6295 H         1 UNK         0.0680 
     80 H80       -74.2297   27.9359  -72.1965 H         1 UNK         0.0680 
     81 H81       -71.6294   29.2150  -69.5886 H         1 UNK         0.1032 
     82 H82       -72.0957   27.8645  -70.5849 H         1 UNK         0.1032 
     83 H83       -71.4301   30.6716  -71.6322 H         1 UNK         0.0461 
     84 H84       -67.9987   29.9120  -71.2172 H         1 UNK         0.3453 
     85 H85       -69.2843   31.0816  -71.0676 H         1 UNK         0.3453 
     86 H86       -72.4418   28.3268  -73.0136 H         1 UNK         0.2984 
     87 H87       -73.4554   29.4277  -75.3436 H         1 UNK         0.0554 
     88 H88       -72.0585   30.7995  -76.8226 H         1 UNK         0.0847 
     89 H89       -72.3439   29.2482  -77.5920 H         1 UNK         0.0847 
     90 H90       -70.7859   29.5890  -76.8405 H         1 UNK         0.0847 
     91 H91       -73.2218   27.2258  -75.2568 H         1 UNK         0.3141 
     92 H92       -70.4764   24.9582  -75.5275 H         1 UNK         0.0743 
     93 H93       -72.5957   25.5023  -73.3816 H         1 UNK         0.0784 
     94 H94       -71.7442   23.9824  -73.6386 H         1 UNK         0.0784 
     95 H95       -70.8607   25.4112  -73.1264 H         1 UNK         0.0784 
     96 H96       -73.4536   25.1567  -75.7525 H         1 UNK         0.3213 
     97 H97       -73.3034   23.3911  -78.9021 H         1 UNK         0.0855 
     98 H98       -74.4562   22.7076  -76.1512 H         1 UNK         0.0814 
     99 H99       -73.3449   21.7098  -77.0766 H         1 UNK         0.0814 
    100 H100      -74.9611   22.0173  -77.6908 H         1 UNK         0.0814 
    101 H101      -75.5376   24.5111  -77.5374 H         1 UNK         0.3105 
    102 H102      -75.7327   27.3781  -79.7185 H         1 UNK         0.0547 
    103 H103      -76.6606   25.3476  -80.8342 H         1 UNK         0.0837 
    104 H104      -77.3357   24.7977  -79.3062 H         1 UNK         0.0837 
    105 H105      -77.9246   26.2815  -80.0486 H         1 UNK         0.0837 
    106 H106      -77.3208   26.4551  -77.4835 H         1 UNK         0.3020 
    107 H107      -75.8328   28.6411  -75.1015 H         1 UNK         0.1245 
    108 H108      -78.6182   28.7344  -75.0692 H         1 UNK         0.0781 
    109 H109      -78.3364   29.0399  -76.7458 H         1 UNK         0.0781 
    110 H110      -79.1954   31.1627  -73.8107 H         1 UNK         0.0836 
    111 H111      -77.7358   31.9698  -73.3000 H         1 UNK         0.0836 
    112 H112      -77.8343   26.5987  -74.9516 H         1 UNK         0.3022 
    113 H113      -75.6425   23.9122  -74.4793 H         1 UNK         0.0747 
    114 H114      -76.5379   23.6035  -72.2126 H         1 UNK         0.0793 
    115 H115      -75.3536   24.9013  -72.2101 H         1 UNK         0.0793 
    116 H116      -77.0669   25.2807  -72.1540 H         1 UNK         0.0793 
    117 H117      -78.4637   24.3012  -73.9594 H         1 UNK         0.3047 
    118 H118      -79.4020   23.3908  -77.3346 H         1 UNK         0.0822 
    119 H119      -80.8525   21.9794  -75.9334 H         1 UNK         0.0807 
    120 H120      -79.9428   22.3959  -74.4837 H         1 UNK         0.0807 
    121 H121      -79.1904   21.4432  -75.7572 H         1 UNK         0.0807 
    122 H122      -81.1406   24.4280  -75.4324 H         1 UNK         0.2946 
    123 H123      -80.9225   27.8911  -76.1679 H         1 UNK         0.1144 
    124 H124      -83.2935   27.5248  -76.8160 H         1 UNK         0.0793 
    125 H125      -82.9919   25.7994  -77.0169 H         1 UNK         0.0793 
    126 H126      -82.1923   26.9603  -78.0617 H         1 UNK         0.0793 
    127 H127      -81.5052   27.5916  -74.0855 H         1 UNK         0.2896 
@<TRIPOS>BOND
     1    1    2 1    
     2    1   67 1    
     3    1   68 1    
     4    1   69 1    
     5    2    3 2    
     6    2    4 am   BACKBONE|DICT|INTERRES
     7    4    5 1    
     8    4   70 1    
     9    5    6 1    
    10    5   65 1    
    11    5   71 1    
    12    6    7 1    
    13    6   72 1    
    14    6   73 1    
    15    7    8 1    
    16    8    9 1    
    17    8   74 1    
    18    8   75 1    
    19    9   10 ar   
    20    9   14 ar   
    21   10   11 ar   
    22   10   76 1    
    23   11   12 ar   
    24   11   48 1    
    25   12   13 ar   
    26   12   77 1    
    27   13   14 ar   
    28   13   15 1    
    29   14   78 1    
    30   15   16 1    
    31   15   79 1    
    32   15   80 1    
    33   16   17 1    
    34   17   18 1    
    35   17   81 1    
    36   17   82 1    
    37   18   19 1    
    38   18   22 1    
    39   18   83 1    
    40   19   20 am   BACKBONE|DICT|INTERRES
    41   19   21 2    
    42   20   84 1    
    43   20   85 1    
    44   22   23 am   BACKBONE|DICT|INTERRES
    45   22   86 1    
    46   23   24 2    
    47   23   25 1    
    48   25   26 1    
    49   25   27 1    
    50   25   87 1    
    51   26   88 1    
    52   26   89 1    
    53   26   90 1    
    54   27   28 am   BACKBONE|DICT|INTERRES
    55   27   91 1    
    56   28   29 2    
    57   28   30 1    
    58   30   31 1    
    59   30   32 1    
    60   30   92 1    
    61   31   93 1    
    62   31   94 1    
    63   31   95 1    
    64   32   33 am   BACKBONE|DICT|INTERRES
    65   32   96 1    
    66   33   34 2    
    67   33   35 1    
    68   35   36 1    
    69   35   37 1    
    70   35   97 1    
    71   36   98 1    
    72   36   99 1    
    73   36  100 1    
    74   37   38 am   BACKBONE|DICT|INTERRES
    75   37  101 1    
    76   38   39 2    
    77   38   40 1    
    78   40   41 1    
    79   40   42 1    
    80   40  102 1    
    81   41  103 1    
    82   41  104 1    
    83   41  105 1    
    84   42   43 am   BACKBONE|DICT|INTERRES
    85   42  106 1    
    86   43   44 2    
    87   43   45 1    
    88   45   46 1    
    89   45   49 1    
    90   45  107 1    
    91   46   47 1    
    92   46  108 1    
    93   46  109 1    
    94   47   48 1    
    95   48  110 1    
    96   48  111 1    
    97   49   50 am   BACKBONE|DICT|INTERRES
    98   49  112 1    
    99   50   51 2    
   100   50   52 1    
   101   52   53 1    
   102   52   54 1    
   103   52  113 1    
   104   53  114 1    
   105   53  115 1    
   106   53  116 1    
   107   54   55 am   BACKBONE|DICT|INTERRES
   108   54  117 1    
   109   55   56 2    
   110   55   57 1    
   111   57   58 1    
   112   57   59 1    
   113   57  118 1    
   114   58  119 1    
   115   58  120 1    
   116   58  121 1    
   117   59   60 am   BACKBONE|DICT|INTERRES
   118   59  122 1    
   119   60   61 2    
   120   60   62 1    
   121   62   63 1    
   122   62   64 1    
   123   62  123 1    
   124   63  124 1    
   125   63  125 1    
   126   63  126 1    
   127   64   65 am   BACKBONE|DICT|INTERRES
   128   64  127 1    
   129   65   66 2    
@<TRIPOS>SUBSTRUCTURE
     1 UNK         1 GROUP             0       ****    0 ROOT    
