@<TRIPOS>MOLECULE
3R135
127   129    1
SMALL
USER_CHARGES


@<TRIPOS>ATOM
      1 CA        -76.6758   22.4012  -69.9054 C.3       0 UNK        -0.1998 
      2 C         -78.1501   22.6711  -70.1675 C.2       0 UNK         0.4909 
      3 O         -78.9641   21.7489  -70.0986 O.2       0 UNK        -0.5240 
      4 N         -78.4970   23.9305  -70.4581 N.am      1 UNK        -0.4739 
      5 CA        -79.8428   24.3700  -70.8397 C.3       1 UNK         0.0864 
      6 C6        -80.0740   25.8552  -70.4510 C.3       11 UNK        -0.0881 
      7 S7        -79.0077   27.0372  -71.3428 S.3       11 UNK        -0.2682 
      8 C8        -79.8268   28.6028  -70.9214 C.3       11 UNK         0.0289 
      9 C9        -79.3063   29.7235  -71.8028 C.ar      11 UNK        -0.0687 
     10 C10       -79.9514   30.0212  -73.0058 C.ar      11 UNK        -0.0823 
     11 C11       -79.4558   31.0224  -73.8456 C.ar      11 UNK        -0.0830 
     12 C12       -78.3179   31.7383  -73.4671 C.ar      11 UNK        -0.1021 
     13 C13       -77.6568   31.4369  -72.2743 C.ar      11 UNK        -0.0753 
     14 C14       -78.1622   30.4377  -71.4371 C.ar      11 UNK        -0.0933 
     15 C15       -76.3658   32.1569  -71.9247 C.3       11 UNK         0.0166 
     16 S16       -74.9723   31.4771  -72.8783 S.3       11 UNK        -0.2615 
     17 C17       -74.8776   29.7840  -72.2014 C.3       11 UNK        -0.0865 
     18 CA        -73.4695   29.1612  -72.3848 C.3       10 UNK         0.0862 
     19 C         -73.2585   27.8817  -71.5225 C.2       10 UNK         0.5551 
     20 N         -72.4655   26.9109  -71.9595 N.am      10 UNK        -0.7319 
     21 O         -73.8006   27.7694  -70.4257 O.2       10 UNK        -0.5018 
     22 N         -73.1728   28.9279  -73.8062 N.am      10 UNK        -0.4509 
     23 C         -72.1629   29.4709  -74.4943 C.2       10 UNK         0.4899 
     24 O         -71.3956   30.3199  -74.0361 O.2       10 UNK        -0.4839 
     25 CA        -71.9603   28.9464  -75.9334 C.3       9 UNK         0.0222 
     26 CB        -70.5944   29.3484  -76.5278 C.3       9 UNK        -0.1966 
     27 N         -72.1586   27.4954  -76.0663 N.am      9 UNK        -0.4218 
     28 C         -71.5837   26.5212  -75.3405 C.2       9 UNK         0.5020 
     29 O         -70.7711   26.7291  -74.4384 O.2       9 UNK        -0.5274 
     30 CA        -72.0018   25.0694  -75.6286 C.3       8 UNK         0.0270 
     31 CB        -72.5427   24.3909  -74.3577 C.3       8 UNK        -0.1976 
     32 N         -73.0209   24.9816  -76.6770 N.am      8 UNK        -0.4313 
     33 C         -72.8602   24.3551  -77.8487 C.2       8 UNK         0.5041 
     34 O         -71.8302   23.7696  -78.1855 O.2       8 UNK        -0.5577 
     35 CA        -74.0545   24.3829  -78.8142 C.3       7 UNK         0.0284 
     36 CB        -74.9556   23.1584  -78.5828 C.3       7 UNK        -0.1958 
     37 N         -74.8577   25.6066  -78.7211 N.am      7 UNK        -0.4454 
     38 C         -74.4469   26.8134  -79.1379 C.2       7 UNK         0.5089 
     39 O         -73.3095   27.0392  -79.5500 O.2       7 UNK        -0.5125 
     40 CA        -75.4599   27.9645  -79.0918 C.3       6 UNK         0.0408 
     41 CB        -76.3713   27.9216  -80.3289 C.3       6 UNK        -0.1791 
     42 N         -76.2872   27.9240  -77.8858 N.am      6 UNK        -0.4762 
     43 C         -76.3396   28.8943  -76.9604 C.2       6 UNK         0.5007 
     44 O         -75.6443   29.9105  -76.9889 O.2       6 UNK        -0.5032 
     45 CA        -77.3357   28.6826  -75.7956 C.3       5 UNK         0.0783 
     46 C46       -78.7824   29.0273  -76.2466 C.3       11 UNK        -0.0857 
     47 S47       -79.0536   30.8043  -76.5766 S.3       11 UNK        -0.2512 
     48 C48       -80.1200   31.2996  -75.1846 C.3       11 UNK         0.0225 
     49 N         -77.2973   27.3169  -75.2614 N.am      5 UNK        -0.4615 
     50 C         -76.2143   26.5985  -74.9304 C.2       4 UNK         0.5053 
     51 O         -75.0715   27.0522  -74.8661 O.2       4 UNK        -0.5105 
     52 CA        -76.4233   25.0874  -74.7122 C.3       4 UNK         0.0263 
     53 CB        -76.3699   24.7533  -73.2152 C.3       4 UNK        -0.1981 
     54 N         -77.6552   24.5408  -75.3046 N.am      4 UNK        -0.4224 
     55 C         -77.9911   24.6125  -76.6056 C.2       3 UNK         0.4895 
     56 O         -77.2938   25.1683  -77.4564 O.2       3 UNK        -0.5091 
     57 CA        -79.3294   24.0014  -77.0533 C.3       3 UNK         0.0250 
     58 CB        -79.0853   22.6617  -77.7658 C.3       3 UNK        -0.1996 
     59 N         -80.3042   23.8045  -75.9791 N.am      3 UNK        -0.4254 
     60 C         -80.8729   24.7728  -75.2466 C.2       2 UNK         0.5004 
     61 O         -80.6263   25.9721  -75.3850 O.2       2 UNK        -0.5226 
     62 CA        -81.8651   24.3249  -74.1527 C.3       2 UNK         0.0269 
     63 CB        -82.3825   22.8783  -74.3283 C.3       2 UNK        -0.1926 
     64 N         -81.3274   24.4999  -72.7967 N.am      2 UNK        -0.4687 
     65 C         -80.1476   24.0617  -72.3278 C.2       1 UNK         0.5165 
     66 O         -79.3290   23.4468  -73.0195 O.2       1 UNK        -0.5079 
     67 H67       -76.0739   23.3057  -69.9931 H         1 UNK         0.0900 
     68 H68       -76.2964   21.6722  -70.6208 H         1 UNK         0.0900 
     69 H69       -76.5397   21.9985  -68.9020 H         1 UNK         0.0900 
     70 H70       -77.7847   24.6437  -70.5171 H         1 UNK         0.2959 
     71 H71       -80.5585   23.7769  -70.2656 H         1 UNK         0.1079 
     72 H72       -81.1186   26.1312  -70.6031 H         1 UNK         0.0837 
     73 H73       -79.8974   25.9829  -69.3816 H         1 UNK         0.0837 
     74 H74       -80.9060   28.5028  -71.0469 H         1 UNK         0.0685 
     75 H75       -79.6546   28.8331  -69.8689 H         1 UNK         0.0685 
     76 H76       -80.8232   29.4524  -73.2996 H         1 UNK         0.1434 
     77 H77       -77.9183   32.4982  -74.1252 H         1 UNK         0.1329 
     78 H78       -77.6488   30.1918  -70.5177 H         1 UNK         0.1335 
     79 H79       -76.4658   33.2200  -72.1486 H         1 UNK         0.0680 
     80 H80       -76.1535   32.0854  -70.8568 H         1 UNK         0.0680 
     81 H81       -75.6396   29.1619  -72.6750 H         1 UNK         0.1032 
     82 H82       -75.1386   29.8349  -71.1430 H         1 UNK         0.1032 
     83 H83       -72.7505   29.8724  -71.9751 H         1 UNK         0.0461 
     84 H84       -72.3279   26.0974  -71.3825 H         1 UNK         0.3453 
     85 H85       -71.9536   27.0065  -72.8291 H         1 UNK         0.3453 
     86 H86       -73.7553   28.2258  -74.2580 H         1 UNK         0.2984 
     87 H87       -72.7374   29.4167  -76.5381 H         1 UNK         0.0554 
     88 H88       -70.4915   29.0014  -77.5559 H         1 UNK         0.0847 
     89 H89       -69.7673   28.9349  -75.9495 H         1 UNK         0.0847 
     90 H90       -70.4746   30.4324  -76.5404 H         1 UNK         0.0847 
     91 H91       -72.8056   27.2154  -76.7878 H         1 UNK         0.3141 
     92 H92       -71.0947   24.5425  -75.9314 H         1 UNK         0.0743 
     93 H93       -73.3919   24.9336  -73.9440 H         1 UNK         0.0784 
     94 H94       -72.8606   23.3673  -74.5563 H         1 UNK         0.0784 
     95 H95       -71.7773   24.3453  -73.5819 H         1 UNK         0.0784 
     96 H96       -73.9058   25.4314  -76.4886 H         1 UNK         0.3213 
     97 H97       -73.6561   24.3224  -79.8296 H         1 UNK         0.0855 
     98 H98       -75.3693   23.1440  -77.5739 H         1 UNK         0.0814 
     99 H99       -74.3952   22.2321  -78.7167 H         1 UNK         0.0814 
    100 H100      -75.7875   23.1378  -79.2869 H         1 UNK         0.0814 
    101 H101      -75.8078   25.4928  -78.3704 H         1 UNK         0.3105 
    102 H102      -74.8888   28.8944  -79.1326 H         1 UNK         0.0547 
    103 H103      -75.7847   27.9473  -81.2484 H         1 UNK         0.0837 
    104 H104      -76.9797   27.0166  -80.3540 H         1 UNK         0.0837 
    105 H105      -77.0453   28.7780  -80.3518 H         1 UNK         0.0837 
    106 H106      -76.8509   27.0912  -77.7451 H         1 UNK         0.3020 
    107 H107      -77.0452   29.3521  -74.9826 H         1 UNK         0.1245 
    108 H108      -79.4966   28.7008  -75.4895 H         1 UNK         0.0781 
    109 H109      -79.0514   28.4680  -77.1451 H         1 UNK         0.0781 
    110 H110      -81.0767   30.7806  -75.2634 H         1 UNK         0.0836 
    111 H111      -80.3407   32.3648  -75.2655 H         1 UNK         0.0836 
    112 H112      -78.1841   26.8314  -75.2567 H         1 UNK         0.3022 
    113 H113      -75.5900   24.5782  -75.1984 H         1 UNK         0.0747 
    114 H114      -76.4063   23.6772  -73.0448 H         1 UNK         0.0793 
    115 H115      -75.4541   25.1266  -72.7552 H         1 UNK         0.0793 
    116 H116      -77.2039   25.2062  -72.6832 H         1 UNK         0.0793 
    117 H117      -78.2966   24.0832  -74.6625 H         1 UNK         0.3047 
    118 H118      -79.7699   24.6958  -77.7718 H         1 UNK         0.0822 
    119 H119      -80.0093   22.2562  -78.1785 H         1 UNK         0.0807 
    120 H120      -78.6615   21.9167  -77.0910 H         1 UNK         0.0807 
    121 H121      -78.3885   22.7818  -78.5968 H         1 UNK         0.0807 
    122 H122      -80.5442   22.8486  -75.7595 H         1 UNK         0.2946 
    123 H123      -82.7231   24.9938  -74.2408 H         1 UNK         0.1144 
    124 H124      -83.1749   22.6607  -73.6120 H         1 UNK         0.0793 
    125 H125      -81.5979   22.1354  -74.1794 H         1 UNK         0.0793 
    126 H126      -82.8056   22.7259  -75.3224 H         1 UNK         0.0793 
    127 H127      -81.9164   25.0302  -72.1705 H         1 UNK         0.2896 
@<TRIPOS>BOND
     1    1    2 1    
     2    1   67 1    
     3    1   68 1    
     4    1   69 1    
     5    2    3 2    
     6    2    4 am   BACKBONE|DICT|INTERRES
     7    4    5 1    
     8    4   70 1    
     9    5    6 1    
    10    5   65 1    
    11    5   71 1    
    12    6    7 1    
    13    6   72 1    
    14    6   73 1    
    15    7    8 1    
    16    8    9 1    
    17    8   74 1    
    18    8   75 1    
    19    9   10 ar   
    20    9   14 ar   
    21   10   11 ar   
    22   10   76 1    
    23   11   12 ar   
    24   11   48 1    
    25   12   13 ar   
    26   12   77 1    
    27   13   14 ar   
    28   13   15 1    
    29   14   78 1    
    30   15   16 1    
    31   15   79 1    
    32   15   80 1    
    33   16   17 1    
    34   17   18 1    
    35   17   81 1    
    36   17   82 1    
    37   18   19 1    
    38   18   22 1    
    39   18   83 1    
    40   19   20 am   BACKBONE|DICT|INTERRES
    41   19   21 2    
    42   20   84 1    
    43   20   85 1    
    44   22   23 am   BACKBONE|DICT|INTERRES
    45   22   86 1    
    46   23   24 2    
    47   23   25 1    
    48   25   26 1    
    49   25   27 1    
    50   25   87 1    
    51   26   88 1    
    52   26   89 1    
    53   26   90 1    
    54   27   28 am   BACKBONE|DICT|INTERRES
    55   27   91 1    
    56   28   29 2    
    57   28   30 1    
    58   30   31 1    
    59   30   32 1    
    60   30   92 1    
    61   31   93 1    
    62   31   94 1    
    63   31   95 1    
    64   32   33 am   BACKBONE|DICT|INTERRES
    65   32   96 1    
    66   33   34 2    
    67   33   35 1    
    68   35   36 1    
    69   35   37 1    
    70   35   97 1    
    71   36   98 1    
    72   36   99 1    
    73   36  100 1    
    74   37   38 am   BACKBONE|DICT|INTERRES
    75   37  101 1    
    76   38   39 2    
    77   38   40 1    
    78   40   41 1    
    79   40   42 1    
    80   40  102 1    
    81   41  103 1    
    82   41  104 1    
    83   41  105 1    
    84   42   43 am   BACKBONE|DICT|INTERRES
    85   42  106 1    
    86   43   44 2    
    87   43   45 1    
    88   45   46 1    
    89   45   49 1    
    90   45  107 1    
    91   46   47 1    
    92   46  108 1    
    93   46  109 1    
    94   47   48 1    
    95   48  110 1    
    96   48  111 1    
    97   49   50 am   BACKBONE|DICT|INTERRES
    98   49  112 1    
    99   50   51 2    
   100   50   52 1    
   101   52   53 1    
   102   52   54 1    
   103   52  113 1    
   104   53  114 1    
   105   53  115 1    
   106   53  116 1    
   107   54   55 am   BACKBONE|DICT|INTERRES
   108   54  117 1    
   109   55   56 2    
   110   55   57 1    
   111   57   58 1    
   112   57   59 1    
   113   57  118 1    
   114   58  119 1    
   115   58  120 1    
   116   58  121 1    
   117   59   60 am   BACKBONE|DICT|INTERRES
   118   59  122 1    
   119   60   61 2    
   120   60   62 1    
   121   62   63 1    
   122   62   64 1    
   123   62  123 1    
   124   63  124 1    
   125   63  125 1    
   126   63  126 1    
   127   64   65 am   BACKBONE|DICT|INTERRES
   128   64  127 1    
   129   65   66 2    
@<TRIPOS>SUBSTRUCTURE
     1 UNK         1 GROUP             0       ****    0 ROOT    
