@<TRIPOS>MOLECULE
3R135
127   129    1
SMALL
USER_CHARGES


@<TRIPOS>ATOM
      1 CA        -86.2383   26.4912  -74.7210 C.3       0 UNK        -0.1998 
      2 C         -84.9422   26.1338  -74.0088 C.2       0 UNK         0.4909 
      3 O         -84.9573   25.3075  -73.0959 O.2       0 UNK        -0.5240 
      4 N         -83.8272   26.7546  -74.4190 N.am      1 UNK        -0.4739 
      5 CA        -82.4697   26.5293  -73.9092 C.3       1 UNK         0.0864 
      6 C6        -82.3078   26.9591  -72.4212 C.3       11 UNK        -0.0881 
      7 S7        -80.5646   27.2403  -71.9615 S.3       11 UNK        -0.2682 
      8 C8        -80.4405   29.0587  -72.0479 C.3       11 UNK         0.0289 
      9 C9        -78.9967   29.5558  -72.0157 C.ar      11 UNK        -0.0687 
     10 C10       -78.5865   30.5742  -72.8858 C.ar      11 UNK        -0.0823 
     11 C11       -77.2674   31.0424  -72.8700 C.ar      11 UNK        -0.0830 
     12 C12       -76.3578   30.4836  -71.9660 C.ar      11 UNK        -0.1021 
     13 C13       -76.7527   29.4715  -71.0894 C.ar      11 UNK        -0.0753 
     14 C14       -78.0737   29.0207  -71.1097 C.ar      11 UNK        -0.0933 
     15 C15       -75.7500   28.8692  -70.1207 C.3       11 UNK         0.0166 
     16 S16       -75.1334   27.2756  -70.7422 S.3       11 UNK        -0.2615 
     17 C17       -73.4182   27.2897  -70.1138 C.3       11 UNK        -0.0865 
     18 CA        -72.3996   27.7089  -71.2148 C.3       10 UNK         0.0862 
     19 C         -70.9585   27.9246  -70.6585 C.2       10 UNK         0.5551 
     20 N         -69.9085   27.6434  -71.4211 N.am      10 UNK        -0.7319 
     21 O         -70.7861   28.3861  -69.5328 O.2       10 UNK        -0.5018 
     22 N         -72.4806   26.8581  -72.4165 N.am      10 UNK        -0.4509 
     23 C         -72.2068   25.5474  -72.4799 C.2       10 UNK         0.4899 
     24 O         -71.7957   24.8801  -71.5302 O.2       10 UNK        -0.4839 
     25 CA        -72.4396   24.8497  -73.8297 C.3       9 UNK         0.0222 
     26 CB        -73.7457   24.0416  -73.7937 C.3       9 UNK        -0.1966 
     27 N         -72.4909   25.7748  -74.9627 N.am      9 UNK        -0.4218 
     28 C         -71.4255   26.3451  -75.5422 C.2       9 UNK         0.5020 
     29 O         -70.2677   26.1891  -75.1489 O.2       9 UNK        -0.5274 
     30 CA        -71.7216   27.2343  -76.7662 C.3       8 UNK         0.0270 
     31 CB        -70.4607   27.6092  -77.5735 C.3       8 UNK        -0.1976 
     32 N         -72.7563   26.6484  -77.6274 N.am      8 UNK        -0.4313 
     33 C         -72.7122   25.4867  -78.2979 C.2       8 UNK         0.5041 
     34 O         -71.7082   24.7793  -78.3904 O.2       8 UNK        -0.5577 
     35 CA        -74.0250   25.0000  -78.9402 C.3       7 UNK         0.0284 
     36 CB        -74.5355   23.7588  -78.1937 C.3       7 UNK        -0.1958 
     37 N         -75.0772   26.0221  -78.9299 N.am      7 UNK        -0.4454 
     38 C         -75.2043   26.9780  -79.8601 C.2       7 UNK         0.5089 
     39 O         -74.5039   27.0517  -80.8701 O.2       7 UNK        -0.5125 
     40 CA        -76.2606   28.0637  -79.5919 C.3       6 UNK         0.0408 
     41 CB        -77.6768   27.5375  -79.8754 C.3       6 UNK        -0.1791 
     42 N         -76.1933   28.5973  -78.2276 N.am      6 UNK        -0.4762 
     43 C         -75.1476   29.2614  -77.7072 C.2       6 UNK         0.5007 
     44 O         -74.1204   29.5090  -78.3373 O.2       6 UNK        -0.5032 
     45 CA        -75.2407   29.7157  -76.2335 C.3       5 UNK         0.0783 
     46 C46       -75.6063   31.2188  -76.1661 C.3       11 UNK        -0.0857 
     47 S47       -75.2107   31.9648  -74.5515 S.3       11 UNK        -0.2512 
     48 C48       -76.8496   32.1972  -73.7773 C.3       11 UNK         0.0225 
     49 N         -76.1749   28.9002  -75.4530 N.am      5 UNK        -0.4615 
     50 C         -76.0454   27.5938  -75.1904 C.2       4 UNK         0.5053 
     51 O         -75.0308   26.9442  -75.4595 O.2       4 UNK        -0.5105 
     52 CA        -77.2775   26.9189  -74.5525 C.3       4 UNK         0.0263 
     53 CB        -78.6060   27.5280  -75.0622 C.3       4 UNK        -0.1981 
     54 N         -77.3378   25.4660  -74.7421 N.am      4 UNK        -0.4224 
     55 C         -77.3744   24.7974  -75.9034 C.2       3 UNK         0.4895 
     56 O         -77.1769   25.3132  -77.0053 O.2       3 UNK        -0.5091 
     57 CA        -77.7830   23.3125  -75.8340 C.3       3 UNK         0.0250 
     58 CB        -76.6749   22.4181  -75.2425 C.3       3 UNK        -0.1996 
     59 N         -79.0728   23.1007  -75.1552 N.am      3 UNK        -0.4254 
     60 C         -79.3634   23.2548  -73.8548 C.2       2 UNK         0.5004 
     61 O         -78.5440   23.5943  -72.9979 O.2       2 UNK        -0.5226 
     62 CA        -80.8299   23.0522  -73.4495 C.3       2 UNK         0.0269 
     63 CB        -80.9519   22.2540  -72.1394 C.3       2 UNK        -0.1926 
     64 N         -81.4514   24.3620  -73.2699 N.am      2 UNK        -0.4687 
     65 C         -81.9824   25.0991  -74.2534 C.2       1 UNK         0.5165 
     66 O         -82.0807   24.6975  -75.4155 O.2       1 UNK        -0.5079 
     67 H67       -86.0848   27.2400  -75.4979 H         1 UNK         0.0900 
     68 H68       -86.6676   25.6039  -75.1855 H         1 UNK         0.0900 
     69 H69       -86.9613   26.8864  -74.0079 H         1 UNK         0.0900 
     70 H70       -83.8882   27.3979  -75.1965 H         1 UNK         0.2959 
     71 H71       -81.8422   27.1930  -74.5056 H         1 UNK         0.1079 
     72 H72       -82.7472   26.2250  -71.7436 H         1 UNK         0.0837 
     73 H73       -82.8614   27.8820  -72.2406 H         1 UNK         0.0837 
     74 H74       -80.9334   29.3973  -72.9606 H         1 UNK         0.0685 
     75 H75       -80.9877   29.4965  -71.2122 H         1 UNK         0.0685 
     76 H76       -79.3007   31.0111  -73.5707 H         1 UNK         0.1434 
     77 H77       -75.3384   30.8433  -71.9371 H         1 UNK         0.1329 
     78 H78       -78.3774   28.2400  -70.4259 H         1 UNK         0.1335 
     79 H79       -74.9198   29.5616  -69.9723 H         1 UNK         0.0680 
     80 H80       -76.2099   28.7233  -69.1422 H         1 UNK         0.0680 
     81 H81       -73.3590   27.9552  -69.2508 H         1 UNK         0.1032 
     82 H82       -73.1812   26.2958  -69.7319 H         1 UNK         0.1032 
     83 H83       -72.6986   28.7008  -71.5559 H         1 UNK         0.0461 
     84 H84       -68.9797   27.7956  -71.0610 H         1 UNK         0.3453 
     85 H85       -70.0380   27.2651  -72.3467 H         1 UNK         0.3453 
     86 H86       -72.8162   27.3115  -73.2527 H         1 UNK         0.2984 
     87 H87       -71.6126   24.1543  -73.9882 H         1 UNK         0.0554 
     88 H88       -73.7443   23.3274  -72.9691 H         1 UNK         0.0847 
     89 H89       -73.8786   23.4729  -74.7132 H         1 UNK         0.0847 
     90 H90       -74.6160   24.6870  -73.6652 H         1 UNK         0.0847 
     91 H91       -73.4184   26.0279  -75.3002 H         1 UNK         0.3141 
     92 H92       -72.1431   28.1599  -76.3722 H         1 UNK         0.0743 
     93 H93       -69.9405   26.7278  -77.9494 H         1 UNK         0.0784 
     94 H94       -70.7109   28.2412  -78.4257 H         1 UNK         0.0784 
     95 H95       -69.7532   28.1635  -76.9557 H         1 UNK         0.0784 
     96 H96       -73.6452   27.1290  -77.6238 H         1 UNK         0.3213 
     97 H97       -73.8070   24.7149  -79.9717 H         1 UNK         0.0855 
     98 H98       -74.6775   23.9757  -77.1354 H         1 UNK         0.0814 
     99 H99       -73.8225   22.9365  -78.2651 H         1 UNK         0.0814 
    100 H100      -75.4837   23.4059  -78.5997 H         1 UNK         0.0814 
    101 H101      -75.7399   25.9900  -78.1575 H         1 UNK         0.3105 
    102 H102      -76.0660   28.8905  -80.2784 H         1 UNK         0.0547 
    103 H103      -77.7500   27.1450  -80.8905 H         1 UNK         0.0837 
    104 H104      -77.9570   26.7325  -79.1952 H         1 UNK         0.0837 
    105 H105      -78.4203   28.3290  -79.7822 H         1 UNK         0.0837 
    106 H106      -76.9887   28.4185  -77.6326 H         1 UNK         0.3020 
    107 H107      -74.2451   29.5793  -75.8053 H         1 UNK         0.1245 
    108 H108      -76.6561   31.3788  -76.4174 H         1 UNK         0.0781 
    109 H109      -75.0366   31.7874  -76.9045 H         1 UNK         0.0781 
    110 H110      -77.6002   32.3885  -74.5453 H         1 UNK         0.0836 
    111 H111      -76.8092   33.1006  -73.1675 H         1 UNK         0.0836 
    112 H112      -77.0118   29.3689  -75.1401 H         1 UNK         0.3022 
    113 H113      -77.2088   27.0889  -73.4767 H         1 UNK         0.0747 
    114 H114      -79.4579   26.9725  -74.6755 H         1 UNK         0.0793 
    115 H115      -78.7352   28.5607  -74.7456 H         1 UNK         0.0793 
    116 H116      -78.6739   27.5052  -76.1506 H         1 UNK         0.0793 
    117 H117      -77.5378   24.9204  -73.9070 H         1 UNK         0.3047 
    118 H118      -77.9401   22.9869  -76.8638 H         1 UNK         0.0822 
    119 H119      -76.9968   21.3784  -75.1860 H         1 UNK         0.0807 
    120 H120      -76.3832   22.7292  -74.2393 H         1 UNK         0.0807 
    121 H121      -75.7807   22.4379  -75.8628 H         1 UNK         0.0807 
    122 H122      -79.8414   22.8853  -75.7765 H         1 UNK         0.2946 
    123 H123      -81.3503   22.4963  -74.2333 H         1 UNK         0.1144 
    124 H124      -80.4761   22.7670  -71.3025 H         1 UNK         0.0793 
    125 H125      -80.4781   21.2761  -72.2344 H         1 UNK         0.0793 
    126 H126      -81.9962   22.0843  -71.8764 H         1 UNK         0.0793 
    127 H127      -81.3389   24.7920  -72.3619 H         1 UNK         0.2896 
@<TRIPOS>BOND
     1    1    2 1    
     2    1   67 1    
     3    1   68 1    
     4    1   69 1    
     5    2    3 2    
     6    2    4 am   BACKBONE|DICT|INTERRES
     7    4    5 1    
     8    4   70 1    
     9    5    6 1    
    10    5   65 1    
    11    5   71 1    
    12    6    7 1    
    13    6   72 1    
    14    6   73 1    
    15    7    8 1    
    16    8    9 1    
    17    8   74 1    
    18    8   75 1    
    19    9   10 ar   
    20    9   14 ar   
    21   10   11 ar   
    22   10   76 1    
    23   11   12 ar   
    24   11   48 1    
    25   12   13 ar   
    26   12   77 1    
    27   13   14 ar   
    28   13   15 1    
    29   14   78 1    
    30   15   16 1    
    31   15   79 1    
    32   15   80 1    
    33   16   17 1    
    34   17   18 1    
    35   17   81 1    
    36   17   82 1    
    37   18   19 1    
    38   18   22 1    
    39   18   83 1    
    40   19   20 am   BACKBONE|DICT|INTERRES
    41   19   21 2    
    42   20   84 1    
    43   20   85 1    
    44   22   23 am   BACKBONE|DICT|INTERRES
    45   22   86 1    
    46   23   24 2    
    47   23   25 1    
    48   25   26 1    
    49   25   27 1    
    50   25   87 1    
    51   26   88 1    
    52   26   89 1    
    53   26   90 1    
    54   27   28 am   BACKBONE|DICT|INTERRES
    55   27   91 1    
    56   28   29 2    
    57   28   30 1    
    58   30   31 1    
    59   30   32 1    
    60   30   92 1    
    61   31   93 1    
    62   31   94 1    
    63   31   95 1    
    64   32   33 am   BACKBONE|DICT|INTERRES
    65   32   96 1    
    66   33   34 2    
    67   33   35 1    
    68   35   36 1    
    69   35   37 1    
    70   35   97 1    
    71   36   98 1    
    72   36   99 1    
    73   36  100 1    
    74   37   38 am   BACKBONE|DICT|INTERRES
    75   37  101 1    
    76   38   39 2    
    77   38   40 1    
    78   40   41 1    
    79   40   42 1    
    80   40  102 1    
    81   41  103 1    
    82   41  104 1    
    83   41  105 1    
    84   42   43 am   BACKBONE|DICT|INTERRES
    85   42  106 1    
    86   43   44 2    
    87   43   45 1    
    88   45   46 1    
    89   45   49 1    
    90   45  107 1    
    91   46   47 1    
    92   46  108 1    
    93   46  109 1    
    94   47   48 1    
    95   48  110 1    
    96   48  111 1    
    97   49   50 am   BACKBONE|DICT|INTERRES
    98   49  112 1    
    99   50   51 2    
   100   50   52 1    
   101   52   53 1    
   102   52   54 1    
   103   52  113 1    
   104   53  114 1    
   105   53  115 1    
   106   53  116 1    
   107   54   55 am   BACKBONE|DICT|INTERRES
   108   54  117 1    
   109   55   56 2    
   110   55   57 1    
   111   57   58 1    
   112   57   59 1    
   113   57  118 1    
   114   58  119 1    
   115   58  120 1    
   116   58  121 1    
   117   59   60 am   BACKBONE|DICT|INTERRES
   118   59  122 1    
   119   60   61 2    
   120   60   62 1    
   121   62   63 1    
   122   62   64 1    
   123   62  123 1    
   124   63  124 1    
   125   63  125 1    
   126   63  126 1    
   127   64   65 am   BACKBONE|DICT|INTERRES
   128   64  127 1    
   129   65   66 2    
@<TRIPOS>SUBSTRUCTURE
     1 UNK         1 GROUP             0       ****    0 ROOT    
