@<TRIPOS>MOLECULE
3R135
127   129    1
SMALL
USER_CHARGES


@<TRIPOS>ATOM
      1 CA        -82.0186   30.5200  -78.0169 C.3       0 UNK        -0.1998 
      2 C         -81.2309   29.2951  -77.5764 C.2       0 UNK         0.4909 
      3 O         -81.3704   28.2289  -78.1767 O.2       0 UNK        -0.5240 
      4 N         -80.3986   29.4432  -76.5391 N.am      1 UNK        -0.4739 
      5 CA        -79.6145   28.3668  -75.9259 C.3       1 UNK         0.0864 
      6 C6        -78.4619   28.9145  -75.0393 C.3       11 UNK        -0.0881 
      7 S7        -78.9246   30.2910  -73.9228 S.3       11 UNK        -0.2682 
      8 C8        -79.2627   29.4526  -72.3418 C.3       11 UNK         0.0289 
      9 C9        -78.0044   28.8801  -71.7068 C.ar      11 UNK        -0.0687 
     10 C10       -77.7671   27.5042  -71.7402 C.ar      11 UNK        -0.0823 
     11 C11       -76.6146   26.9648  -71.1624 C.ar      11 UNK        -0.0830 
     12 C12       -75.7036   27.8148  -70.5291 C.ar      11 UNK        -0.1021 
     13 C13       -75.9319   29.1936  -70.4821 C.ar      11 UNK        -0.0753 
     14 C14       -77.0856   29.7207  -71.0713 C.ar      11 UNK        -0.0933 
     15 C15       -74.9360   30.1129  -69.7926 C.3       11 UNK         0.0166 
     16 S16       -73.9008   30.9827  -71.0111 S.3       11 UNK        -0.2615 
     17 C17       -72.2085   30.6808  -70.3803 C.3       11 UNK        -0.0865 
     18 CA        -71.4499   29.5566  -71.1378 C.3       10 UNK         0.0862 
     19 C         -71.9056   28.1349  -70.6892 C.2       10 UNK         0.5551 
     20 N         -72.3938   27.2771  -71.5763 N.am      10 UNK        -0.7319 
     21 O         -71.8037   27.8039  -69.5105 O.2       10 UNK        -0.5018 
     22 N         -71.4640   29.8022  -72.5874 N.am      10 UNK        -0.4509 
     23 C         -70.6751   29.2329  -73.5042 C.2       10 UNK         0.4899 
     24 O         -69.7446   28.4761  -73.2243 O.2       10 UNK        -0.4839 
     25 CA        -71.0003   29.5476  -74.9797 C.3       9 UNK         0.0222 
     26 CB        -70.3841   28.5219  -75.9495 C.3       9 UNK        -0.1966 
     27 N         -72.4446   29.6169  -75.2274 N.am      9 UNK        -0.4218 
     28 C         -73.2344   30.6795  -75.0342 C.2       9 UNK         0.5020 
     29 O         -72.8165   31.7583  -74.6111 O.2       9 UNK        -0.5274 
     30 CA        -74.7337   30.4953  -75.3538 C.3       8 UNK         0.0270 
     31 CB        -75.5401   31.7929  -75.1577 C.3       8 UNK        -0.1976 
     32 N         -74.9671   29.9899  -76.7123 N.am      8 UNK        -0.4313 
     33 C         -74.7651   28.7290  -77.1112 C.2       8 UNK         0.5041 
     34 O         -74.3151   27.8434  -76.3751 O.2       8 UNK        -0.5577 
     35 CA        -75.0777   28.4036  -78.5755 C.3       7 UNK         0.0284 
     36 CB        -73.8868   28.7482  -79.4851 C.3       7 UNK        -0.1958 
     37 N         -75.3380   26.9730  -78.6321 N.am      7 UNK        -0.4454 
     38 C         -76.3178   26.3688  -79.3089 C.2       7 UNK         0.5089 
     39 O         -77.0130   26.9272  -80.1582 O.2       7 UNK        -0.5125 
     40 CA        -76.5859   24.8903  -78.9570 C.3       6 UNK         0.0408 
     41 CB        -75.9390   23.9650  -79.9998 C.3       6 UNK        -0.1791 
     42 N         -76.1347   24.4957  -77.6131 N.am      6 UNK        -0.4762 
     43 C         -76.5929   25.0225  -76.4673 C.2       6 UNK         0.5007 
     44 O         -77.4639   25.8928  -76.4163 O.2       6 UNK        -0.5032 
     45 CA        -75.9982   24.4723  -75.1645 C.3       5 UNK         0.0783 
     46 C46       -76.0548   25.5328  -74.0341 C.3       11 UNK        -0.0857 
     47 S47       -75.1564   25.0383  -72.5258 S.3       11 UNK        -0.2512 
     48 C48       -76.3540   25.4654  -71.2219 C.3       11 UNK         0.0225 
     49 N         -76.7387   23.2561  -74.8247 N.am      5 UNK        -0.4615 
     50 C         -76.1820   22.1095  -74.4137 C.2       4 UNK         0.5053 
     51 O         -74.9655   21.9200  -74.3858 O.2       4 UNK        -0.5105 
     52 CA        -77.1114   20.9849  -73.9166 C.3       4 UNK         0.0263 
     53 CB        -76.9379   20.7929  -72.3997 C.3       4 UNK        -0.1981 
     54 N         -78.5279   21.2382  -74.1900 N.am      4 UNK        -0.4224 
     55 C         -79.1971   20.7852  -75.2588 C.2       3 UNK         0.4895 
     56 O         -78.7030   20.0621  -76.1245 O.2       3 UNK        -0.5091 
     57 CA        -80.6691   21.2275  -75.3951 C.3       3 UNK         0.0250 
     58 CB        -81.6032   20.1849  -74.7594 C.3       3 UNK        -0.1996 
     59 N         -80.9594   22.5527  -74.8268 N.am      3 UNK        -0.4254 
     60 C         -80.3723   23.6892  -75.2260 C.2       2 UNK         0.5004 
     61 O         -79.5147   23.7262  -76.1089 O.2       2 UNK        -0.5226 
     62 CA        -80.7620   24.9782  -74.4900 C.3       2 UNK         0.0269 
     63 CB        -80.4016   24.9024  -72.9940 C.3       2 UNK        -0.1926 
     64 N         -80.0639   26.1065  -75.1062 N.am      2 UNK        -0.4687 
     65 C         -80.5079   27.3654  -75.1615 C.2       1 UNK         0.5165 
     66 O         -81.5549   27.7437  -74.6286 O.2       1 UNK        -0.5079 
     67 H67       -81.7877   31.3937  -77.4077 H         1 UNK         0.0900 
     68 H68       -81.7899   30.7603  -79.0549 H         1 UNK         0.0900 
     69 H69       -83.0880   30.3256  -77.9392 H         1 UNK         0.0900 
     70 H70       -80.3457   30.3302  -76.0578 H         1 UNK         0.2959 
     71 H71       -79.1570   27.8123  -76.7483 H         1 UNK         0.1079 
     72 H72       -77.6807   29.2990  -75.6956 H         1 UNK         0.0837 
     73 H73       -77.9779   28.1143  -74.4782 H         1 UNK         0.0837 
     74 H74       -80.0118   28.6745  -72.4929 H         1 UNK         0.0685 
     75 H75       -79.7117   30.1726  -71.6561 H         1 UNK         0.0685 
     76 H76       -78.4789   26.8553  -72.2272 H         1 UNK         0.1434 
     77 H77       -74.8118   27.4010  -70.0791 H         1 UNK         0.1329 
     78 H78       -77.2640   30.7871  -71.0434 H         1 UNK         0.1335 
     79 H79       -75.4684   30.8485  -69.1881 H         1 UNK         0.0680 
     80 H80       -74.3177   29.5399  -69.1003 H         1 UNK         0.0680 
     81 H81       -71.6551   31.6143  -70.4934 H         1 UNK         0.1032 
     82 H82       -72.2254   30.4956  -69.3047 H         1 UNK         0.1032 
     83 H83       -70.4048   29.6221  -70.8294 H         1 UNK         0.0461 
     84 H84       -72.6844   26.3606  -71.2767 H         1 UNK         0.3453 
     85 H85       -72.4851   27.5436  -72.5420 H         1 UNK         0.3453 
     86 H86       -72.1891   30.4296  -72.9111 H         1 UNK         0.2984 
     87 H87       -70.5581   30.5209  -75.2016 H         1 UNK         0.0554 
     88 H88       -69.2980   28.4913  -75.8529 H         1 UNK         0.0847 
     89 H89       -70.6064   28.7732  -76.9868 H         1 UNK         0.0847 
     90 H90       -70.7583   27.5148  -75.7613 H         1 UNK         0.0847 
     91 H91       -72.8995   28.7706  -75.5665 H         1 UNK         0.3141 
     92 H92       -75.1205   29.7603  -74.6436 H         1 UNK         0.0743 
     93 H93       -75.1835   32.5935  -75.8070 H         1 UNK         0.0784 
     94 H94       -76.5991   31.6408  -75.3641 H         1 UNK         0.0784 
     95 H95       -75.4626   32.1462  -74.1283 H         1 UNK         0.0784 
     96 H96       -75.2859   30.6677  -77.3903 H         1 UNK         0.3213 
     97 H97       -75.9637   28.9635  -78.8838 H         1 UNK         0.0855 
     98 H98       -72.9800   28.2250  -79.1781 H         1 UNK         0.0814 
     99 H99       -73.6713   29.8171  -79.4627 H         1 UNK         0.0814 
    100 H100      -74.0920   28.4805  -80.5218 H         1 UNK         0.0814 
    101 H101      -74.8703   26.4534  -77.8994 H         1 UNK         0.3105 
    102 H102      -77.6673   24.7418  -78.9935 H         1 UNK         0.0547 
    103 H103      -76.1998   22.9215  -79.8227 H         1 UNK         0.0837 
    104 H104      -74.8515   24.0476  -79.9941 H         1 UNK         0.0837 
    105 H105      -76.2786   24.2143  -81.0062 H         1 UNK         0.0837 
    106 H106      -75.4407   23.7627  -77.5684 H         1 UNK         0.3020 
    107 H107      -74.9477   24.2433  -75.3584 H         1 UNK         0.1245 
    108 H108      -77.0944   25.7462  -73.7866 H         1 UNK         0.0781 
    109 H109      -75.6227   26.4783  -74.3685 H         1 UNK         0.0781 
    110 H110      -75.9645   25.1255  -70.2612 H         1 UNK         0.0836 
    111 H111      -77.2809   24.9138  -71.3848 H         1 UNK         0.0836 
    112 H112      -77.7409   23.3047  -74.9622 H         1 UNK         0.3022 
    113 H113      -76.7990   20.0629  -74.4116 H         1 UNK         0.0747 
    114 H114      -77.5533   19.9724  -72.0302 H         1 UNK         0.0793 
    115 H115      -75.9026   20.5554  -72.1508 H         1 UNK         0.0793 
    116 H116      -77.2066   21.6928  -71.8446 H         1 UNK         0.0793 
    117 H117      -79.0237   21.8125  -73.5242 H         1 UNK         0.3047 
    118 H118      -80.8904   21.2762  -76.4636 H         1 UNK         0.0822 
    119 H119      -82.6508   20.4276  -74.9387 H         1 UNK         0.0807 
    120 H120      -81.4539   20.1114  -73.6814 H         1 UNK         0.0807 
    121 H121      -81.4266   19.1941  -75.1808 H         1 UNK         0.0807 
    122 H122      -81.6554   22.5895  -74.0954 H         1 UNK         0.2946 
    123 H123      -81.8403   25.1128  -74.6042 H         1 UNK         0.1144 
    124 H124      -80.6499   25.8311  -72.4799 H         1 UNK         0.0793 
    125 H125      -79.3394   24.7063  -72.8466 H         1 UNK         0.0793 
    126 H126      -80.9532   24.1081  -72.4902 H         1 UNK         0.0793 
    127 H127      -79.2214   25.8547  -75.6230 H         1 UNK         0.2896 
@<TRIPOS>BOND
     1    1    2 1    
     2    1   67 1    
     3    1   68 1    
     4    1   69 1    
     5    2    3 2    
     6    2    4 am   BACKBONE|DICT|INTERRES
     7    4    5 1    
     8    4   70 1    
     9    5    6 1    
    10    5   65 1    
    11    5   71 1    
    12    6    7 1    
    13    6   72 1    
    14    6   73 1    
    15    7    8 1    
    16    8    9 1    
    17    8   74 1    
    18    8   75 1    
    19    9   10 ar   
    20    9   14 ar   
    21   10   11 ar   
    22   10   76 1    
    23   11   12 ar   
    24   11   48 1    
    25   12   13 ar   
    26   12   77 1    
    27   13   14 ar   
    28   13   15 1    
    29   14   78 1    
    30   15   16 1    
    31   15   79 1    
    32   15   80 1    
    33   16   17 1    
    34   17   18 1    
    35   17   81 1    
    36   17   82 1    
    37   18   19 1    
    38   18   22 1    
    39   18   83 1    
    40   19   20 am   BACKBONE|DICT|INTERRES
    41   19   21 2    
    42   20   84 1    
    43   20   85 1    
    44   22   23 am   BACKBONE|DICT|INTERRES
    45   22   86 1    
    46   23   24 2    
    47   23   25 1    
    48   25   26 1    
    49   25   27 1    
    50   25   87 1    
    51   26   88 1    
    52   26   89 1    
    53   26   90 1    
    54   27   28 am   BACKBONE|DICT|INTERRES
    55   27   91 1    
    56   28   29 2    
    57   28   30 1    
    58   30   31 1    
    59   30   32 1    
    60   30   92 1    
    61   31   93 1    
    62   31   94 1    
    63   31   95 1    
    64   32   33 am   BACKBONE|DICT|INTERRES
    65   32   96 1    
    66   33   34 2    
    67   33   35 1    
    68   35   36 1    
    69   35   37 1    
    70   35   97 1    
    71   36   98 1    
    72   36   99 1    
    73   36  100 1    
    74   37   38 am   BACKBONE|DICT|INTERRES
    75   37  101 1    
    76   38   39 2    
    77   38   40 1    
    78   40   41 1    
    79   40   42 1    
    80   40  102 1    
    81   41  103 1    
    82   41  104 1    
    83   41  105 1    
    84   42   43 am   BACKBONE|DICT|INTERRES
    85   42  106 1    
    86   43   44 2    
    87   43   45 1    
    88   45   46 1    
    89   45   49 1    
    90   45  107 1    
    91   46   47 1    
    92   46  108 1    
    93   46  109 1    
    94   47   48 1    
    95   48  110 1    
    96   48  111 1    
    97   49   50 am   BACKBONE|DICT|INTERRES
    98   49  112 1    
    99   50   51 2    
   100   50   52 1    
   101   52   53 1    
   102   52   54 1    
   103   52  113 1    
   104   53  114 1    
   105   53  115 1    
   106   53  116 1    
   107   54   55 am   BACKBONE|DICT|INTERRES
   108   54  117 1    
   109   55   56 2    
   110   55   57 1    
   111   57   58 1    
   112   57   59 1    
   113   57  118 1    
   114   58  119 1    
   115   58  120 1    
   116   58  121 1    
   117   59   60 am   BACKBONE|DICT|INTERRES
   118   59  122 1    
   119   60   61 2    
   120   60   62 1    
   121   62   63 1    
   122   62   64 1    
   123   62  123 1    
   124   63  124 1    
   125   63  125 1    
   126   63  126 1    
   127   64   65 am   BACKBONE|DICT|INTERRES
   128   64  127 1    
   129   65   66 2    
@<TRIPOS>SUBSTRUCTURE
     1 UNK         1 GROUP             0       ****    0 ROOT    
