@<TRIPOS>MOLECULE
3R135
127   129    1
SMALL
USER_CHARGES


@<TRIPOS>ATOM
      1 CA        -81.9685   26.1658  -69.5285 C.3       0 UNK        -0.1998 
      2 C         -82.6679   26.4023  -70.8585 C.2       0 UNK         0.4909 
      3 O         -83.7958   25.9465  -71.0482 O.2       0 UNK        -0.5240 
      4 N         -82.0046   27.1091  -71.7829 N.am      1 UNK        -0.4739 
      5 CA        -82.5249   27.4427  -73.1184 C.3       1 UNK         0.0864 
      6 C6        -81.8291   28.6890  -73.7241 C.3       11 UNK        -0.0881 
      7 S7        -81.9285   30.1425  -72.6213 S.3       11 UNK        -0.2682 
      8 C8        -80.4022   31.0547  -73.0454 C.3       11 UNK         0.0289 
      9 C9        -79.0918   30.2998  -72.8120 C.ar      11 UNK        -0.0687 
     10 C10       -78.9683   29.2876  -71.8512 C.ar      11 UNK        -0.0823 
     11 C11       -77.7645   28.5954  -71.6852 C.ar      11 UNK        -0.0830 
     12 C12       -76.6564   28.9655  -72.4548 C.ar      11 UNK        -0.1021 
     13 C13       -76.7521   29.9944  -73.3943 C.ar      11 UNK        -0.0753 
     14 C14       -77.9732   30.6484  -73.5742 C.ar      11 UNK        -0.0933 
     15 C15       -75.5438   30.4005  -74.2234 C.3       11 UNK         0.0166 
     16 S16       -74.6021   31.7350  -73.4199 S.3       11 UNK        -0.2615 
     17 C17       -73.4897   30.7967  -72.3132 C.3       11 UNK        -0.0865 
     18 CA        -72.0430   30.7131  -72.8680 C.3       10 UNK         0.0862 
     19 C         -71.0684   30.0535  -71.8474 C.2       10 UNK         0.5551 
     20 N         -70.2913   29.0398  -72.2133 N.am      10 UNK        -0.7319 
     21 O         -71.0076   30.4795  -70.6967 O.2       10 UNK        -0.5018 
     22 N         -72.0166   30.0923  -74.2003 N.am      10 UNK        -0.4509 
     23 C         -71.1554   30.3974  -75.1762 C.2       10 UNK         0.4899 
     24 O         -70.3013   31.2813  -75.0892 O.2       10 UNK        -0.4839 
     25 CA        -71.2771   29.5594  -76.4638 C.3       9 UNK         0.0222 
     26 CB        -70.0199   29.6455  -77.3548 C.3       9 UNK        -0.1966 
     27 N         -71.6376   28.1562  -76.2158 N.am      9 UNK        -0.4218 
     28 C         -70.9556   27.2602  -75.4797 C.2       9 UNK         0.5020 
     29 O         -69.9431   27.5400  -74.8359 O.2       9 UNK        -0.5274 
     30 CA        -71.4857   25.8130  -75.4220 C.3       8 UNK         0.0270 
     31 CB        -71.8763   25.4292  -73.9842 C.3       8 UNK        -0.1976 
     32 N         -72.6189   25.5741  -76.3202 N.am      8 UNK        -0.4313 
     33 C         -72.5116   25.4231  -77.6487 C.2       8 UNK         0.5041 
     34 O         -71.4322   25.3811  -78.2404 O.2       8 UNK        -0.5577 
     35 CA        -73.8103   25.3320  -78.4714 C.3       7 UNK         0.0284 
     36 CB        -74.0705   23.8760  -78.8899 C.3       7 UNK        -0.1958 
     37 N         -75.0006   25.8664  -77.8000 N.am      7 UNK        -0.4454 
     38 C         -75.1780   27.1415  -77.4234 C.2       7 UNK         0.5089 
     39 O         -74.3409   28.0282  -77.5967 O.2       7 UNK        -0.5125 
     40 CA        -76.4749   27.4598  -76.6551 C.3       6 UNK         0.0408 
     41 CB        -77.6690   27.5969  -77.6110 C.3       6 UNK        -0.1791 
     42 N         -76.7767   26.4655  -75.6205 N.am      6 UNK        -0.4762 
     43 C         -75.9744   26.1875  -74.5807 C.2       6 UNK         0.5007 
     44 O         -74.9144   26.7741  -74.3643 O.2       6 UNK        -0.5032 
     45 CA        -76.3850   25.0076  -73.6812 C.3       5 UNK         0.0783 
     46 C46       -77.4229   25.4101  -72.6008 C.3       11 UNK        -0.0857 
     47 S47       -76.6055   26.0769  -71.1111 S.3       11 UNK        -0.2512 
     48 C48       -77.6822   27.4774  -70.6472 C.3       11 UNK         0.0225 
     49 N         -76.8408   23.8816  -74.4992 N.am      5 UNK        -0.4615 
     50 C         -76.0191   23.0651  -75.1753 C.2       4 UNK         0.5053 
     51 O         -74.7917   23.1387  -75.1251 O.2       4 UNK        -0.5105 
     52 CA        -76.6683   21.9942  -76.0710 C.3       4 UNK         0.0263 
     53 CB        -76.8671   20.6884  -75.2852 C.3       4 UNK        -0.1981 
     54 N         -77.9490   22.4149  -76.6438 N.am      4 UNK        -0.4224 
     55 C         -78.0966   23.4086  -77.5318 C.2       3 UNK         0.4895 
     56 O         -77.1599   24.0466  -78.0069 O.2       3 UNK        -0.5091 
     57 CA        -79.5361   23.7986  -77.9066 C.3       3 UNK         0.0250 
     58 CB        -80.0315   22.9578  -79.0937 C.3       3 UNK        -0.1996 
     59 N         -80.4807   23.6834  -76.7898 N.am      3 UNK        -0.4254 
     60 C         -80.3768   24.3517  -75.6329 C.2       2 UNK         0.5004 
     61 O         -79.4549   25.1291  -75.3664 O.2       2 UNK        -0.5226 
     62 CA        -81.4323   24.0323  -74.5661 C.3       2 UNK         0.0269 
     63 CB        -80.9469   22.8812  -73.6693 C.3       2 UNK        -0.1926 
     64 N         -81.6973   25.2012  -73.7313 N.am      2 UNK        -0.4687 
     65 C         -82.4436   26.2520  -74.0992 C.2       1 UNK         0.5165 
     66 O         -83.0552   26.3069  -75.1676 O.2       1 UNK        -0.5079 
     67 H67       -82.5929   26.5205  -68.7089 H         1 UNK         0.0900 
     68 H68       -81.0118   26.6840  -69.4709 H         1 UNK         0.0900 
     69 H69       -81.7885   25.1010  -69.3833 H         1 UNK         0.0900 
     70 H70       -81.0876   27.4709  -71.5730 H         1 UNK         0.2959 
     71 H71       -83.5867   27.6786  -73.0144 H         1 UNK         0.1079 
     72 H72       -80.7852   28.4656  -73.9513 H         1 UNK         0.0837 
     73 H73       -82.2920   28.9616  -74.6747 H         1 UNK         0.0837 
     74 H74       -80.4731   31.3566  -74.0917 H         1 UNK         0.0685 
     75 H75       -80.3773   31.9746  -72.4600 H         1 UNK         0.0685 
     76 H76       -79.8134   29.0346  -71.2287 H         1 UNK         0.1434 
     77 H77       -75.7164   28.4486  -72.3265 H         1 UNK         0.1329 
     78 H78       -78.0486   31.4410  -74.3064 H         1 UNK         0.1335 
     79 H79       -75.8710   30.7483  -75.2044 H         1 UNK         0.0680 
     80 H80       -74.8985   29.5412  -74.4095 H         1 UNK         0.0680 
     81 H81       -73.8865   29.7983  -72.1306 H         1 UNK         0.1032 
     82 H82       -73.4966   31.3008  -71.3449 H         1 UNK         0.1032 
     83 H83       -71.6893   31.7408  -72.9714 H         1 UNK         0.0461 
     84 H84       -70.2946   28.6877  -73.1637 H         1 UNK         0.3453 
     85 H85       -69.6659   28.6347  -71.5354 H         1 UNK         0.3453 
     86 H86       -72.6647   29.3344  -74.3523 H         1 UNK         0.2984 
     87 H87       -72.1085   29.9883  -77.0250 H         1 UNK         0.0554 
     88 H88       -70.1396   29.0609  -78.2669 H         1 UNK         0.0847 
     89 H89       -69.1320   29.2810  -76.8370 H         1 UNK         0.0847 
     90 H90       -69.8214   30.6749  -77.6553 H         1 UNK         0.0847 
     91 H91       -72.4898   27.8486  -76.6742 H         1 UNK         0.3141 
     92 H92       -70.6665   25.1592  -75.7285 H         1 UNK         0.0743 
     93 H93       -72.5861   26.1335  -73.5517 H         1 UNK         0.0784 
     94 H94       -72.3185   24.4334  -73.9407 H         1 UNK         0.0784 
     95 H95       -70.9998   25.4230  -73.3350 H         1 UNK         0.0784 
     96 H96       -73.5416   25.6035  -75.9049 H         1 UNK         0.3213 
     97 H97       -73.6557   25.9236  -79.3762 H         1 UNK         0.0855 
     98 H98       -74.2705   23.2410  -78.0264 H         1 UNK         0.0814 
     99 H99       -73.2087   23.4568  -79.4111 H         1 UNK         0.0814 
    100 H100      -74.9220   23.8027  -79.5666 H         1 UNK         0.0814 
    101 H101      -75.7715   25.2134  -77.6679 H         1 UNK         0.3105 
    102 H102      -76.3374   28.4189  -76.1546 H         1 UNK         0.0547 
    103 H103      -77.4884   28.3810  -78.3474 H         1 UNK         0.0837 
    104 H104      -77.8589   26.6745  -78.1591 H         1 UNK         0.0837 
    105 H105      -78.5797   27.8605  -77.0726 H         1 UNK         0.0837 
    106 H106      -77.6499   25.9533  -75.7076 H         1 UNK         0.3020 
    107 H107      -75.4777   24.6758  -73.1694 H         1 UNK         0.1245 
    108 H108      -78.1616   26.1131  -72.9916 H         1 UNK         0.0781 
    109 H109      -77.9892   24.5355  -72.2777 H         1 UNK         0.0781 
    110 H110      -78.6757   27.0821  -70.4325 H         1 UNK         0.0836 
    111 H111      -77.3125   27.9029  -69.7135 H         1 UNK         0.0836 
    112 H112      -77.8376   23.8165  -74.6540 H         1 UNK         0.3022 
    113 H113      -75.9818   21.7950  -76.8965 H         1 UNK         0.0747 
    114 H114      -77.2493   19.8935  -75.9259 H         1 UNK         0.0793 
    115 H115      -75.9224   20.3381  -74.8668 H         1 UNK         0.0793 
    116 H116      -77.5633   20.8167  -74.4552 H         1 UNK         0.0793 
    117 H117      -78.7763   21.9398  -76.3145 H         1 UNK         0.3047 
    118 H118      -79.5204   24.8461  -78.2140 H         1 UNK         0.0822 
    119 H119      -81.0132   23.2891  -79.4328 H         1 UNK         0.0807 
    120 H120      -80.1021   21.8992  -78.8405 H         1 UNK         0.0807 
    121 H121      -79.3520   23.0450  -79.9429 H         1 UNK         0.0807 
    122 H122      -81.2594   23.0536  -76.9223 H         1 UNK         0.2946 
    123 H123      -82.3611   23.7340  -75.0583 H         1 UNK         0.1144 
    124 H124      -80.7694   21.9762  -74.2518 H         1 UNK         0.0793 
    125 H125      -81.6882   22.6328  -72.9095 H         1 UNK         0.0793 
    126 H126      -80.0154   23.1287  -73.1585 H         1 UNK         0.0793 
    127 H127      -81.2099   25.2535  -72.8498 H         1 UNK         0.2896 
@<TRIPOS>BOND
     1    1    2 1    
     2    1   67 1    
     3    1   68 1    
     4    1   69 1    
     5    2    3 2    
     6    2    4 am   BACKBONE|DICT|INTERRES
     7    4    5 1    
     8    4   70 1    
     9    5    6 1    
    10    5   65 1    
    11    5   71 1    
    12    6    7 1    
    13    6   72 1    
    14    6   73 1    
    15    7    8 1    
    16    8    9 1    
    17    8   74 1    
    18    8   75 1    
    19    9   10 ar   
    20    9   14 ar   
    21   10   11 ar   
    22   10   76 1    
    23   11   12 ar   
    24   11   48 1    
    25   12   13 ar   
    26   12   77 1    
    27   13   14 ar   
    28   13   15 1    
    29   14   78 1    
    30   15   16 1    
    31   15   79 1    
    32   15   80 1    
    33   16   17 1    
    34   17   18 1    
    35   17   81 1    
    36   17   82 1    
    37   18   19 1    
    38   18   22 1    
    39   18   83 1    
    40   19   20 am   BACKBONE|DICT|INTERRES
    41   19   21 2    
    42   20   84 1    
    43   20   85 1    
    44   22   23 am   BACKBONE|DICT|INTERRES
    45   22   86 1    
    46   23   24 2    
    47   23   25 1    
    48   25   26 1    
    49   25   27 1    
    50   25   87 1    
    51   26   88 1    
    52   26   89 1    
    53   26   90 1    
    54   27   28 am   BACKBONE|DICT|INTERRES
    55   27   91 1    
    56   28   29 2    
    57   28   30 1    
    58   30   31 1    
    59   30   32 1    
    60   30   92 1    
    61   31   93 1    
    62   31   94 1    
    63   31   95 1    
    64   32   33 am   BACKBONE|DICT|INTERRES
    65   32   96 1    
    66   33   34 2    
    67   33   35 1    
    68   35   36 1    
    69   35   37 1    
    70   35   97 1    
    71   36   98 1    
    72   36   99 1    
    73   36  100 1    
    74   37   38 am   BACKBONE|DICT|INTERRES
    75   37  101 1    
    76   38   39 2    
    77   38   40 1    
    78   40   41 1    
    79   40   42 1    
    80   40  102 1    
    81   41  103 1    
    82   41  104 1    
    83   41  105 1    
    84   42   43 am   BACKBONE|DICT|INTERRES
    85   42  106 1    
    86   43   44 2    
    87   43   45 1    
    88   45   46 1    
    89   45   49 1    
    90   45  107 1    
    91   46   47 1    
    92   46  108 1    
    93   46  109 1    
    94   47   48 1    
    95   48  110 1    
    96   48  111 1    
    97   49   50 am   BACKBONE|DICT|INTERRES
    98   49  112 1    
    99   50   51 2    
   100   50   52 1    
   101   52   53 1    
   102   52   54 1    
   103   52  113 1    
   104   53  114 1    
   105   53  115 1    
   106   53  116 1    
   107   54   55 am   BACKBONE|DICT|INTERRES
   108   54  117 1    
   109   55   56 2    
   110   55   57 1    
   111   57   58 1    
   112   57   59 1    
   113   57  118 1    
   114   58  119 1    
   115   58  120 1    
   116   58  121 1    
   117   59   60 am   BACKBONE|DICT|INTERRES
   118   59  122 1    
   119   60   61 2    
   120   60   62 1    
   121   62   63 1    
   122   62   64 1    
   123   62  123 1    
   124   63  124 1    
   125   63  125 1    
   126   63  126 1    
   127   64   65 am   BACKBONE|DICT|INTERRES
   128   64  127 1    
   129   65   66 2    
@<TRIPOS>SUBSTRUCTURE
     1 UNK         1 GROUP             0       ****    0 ROOT    
