@<TRIPOS>MOLECULE
3R135
127   129    1
SMALL
USER_CHARGES


@<TRIPOS>ATOM
      1 CA        -84.0510   27.7535  -71.8416 C.3       0 UNK        -0.1998 
      2 C         -83.5464   28.2004  -73.2053 C.2       0 UNK         0.4909 
      3 O         -84.3495   28.4751  -74.0974 O.2       0 UNK        -0.5240 
      4 N         -82.2200   28.2732  -73.3731 N.am      1 UNK        -0.4739 
      5 CA        -81.5555   28.6735  -74.6210 C.3       1 UNK         0.0864 
      6 C6        -80.0942   29.1190  -74.3666 C.3       11 UNK        -0.0881 
      7 S7        -79.9901   30.7045  -73.4668 S.3       11 UNK        -0.2682 
      8 C8        -79.7413   30.1947  -71.7319 C.3       11 UNK         0.0289 
      9 C9        -78.5330   29.2876  -71.5301 C.ar      11 UNK        -0.0687 
     10 C10       -78.6861   28.0595  -70.8769 C.ar      11 UNK        -0.0823 
     11 C11       -77.5916   27.2077  -70.6961 C.ar      11 UNK        -0.0830 
     12 C12       -76.3322   27.6132  -71.1468 C.ar      11 UNK        -0.1021 
     13 C13       -76.1645   28.8305  -71.8099 C.ar      11 UNK        -0.0753 
     14 C14       -77.2676   29.6688  -71.9919 C.ar      11 UNK        -0.0933 
     15 C15       -74.8040   29.1971  -72.3844 C.3       11 UNK         0.0166 
     16 S16       -73.9648   30.4837  -71.4135 S.3       11 UNK        -0.2615 
     17 C17       -72.2177   30.2158  -71.8803 C.3       11 UNK        -0.0865 
     18 CA        -71.8148   30.9136  -73.2066 C.3       10 UNK         0.0862 
     19 C         -70.2702   30.9697  -73.3510 C.2       10 UNK         0.5551 
     20 N         -69.6523   32.0851  -72.9885 N.am      10 UNK        -0.7319 
     21 O         -69.6286   29.9968  -73.7429 O.2       10 UNK        -0.5018 
     22 N         -72.4281   30.2505  -74.3641 N.am      10 UNK        -0.4509 
     23 C         -72.5542   30.7896  -75.5819 C.2       10 UNK         0.4899 
     24 O         -72.2377   31.9463  -75.8648 O.2       10 UNK        -0.4839 
     25 CA        -73.1367   29.8516  -76.6507 C.3       9 UNK         0.0222 
     26 CB        -73.3751   30.5294  -78.0174 C.3       9 UNK        -0.1966 
     27 N         -72.3336   28.6291  -76.7658 N.am      9 UNK        -0.4218 
     28 C         -71.0991   28.4867  -77.2738 C.2       9 UNK         0.5020 
     29 O         -70.4696   29.3961  -77.8158 O.2       9 UNK        -0.5274 
     30 CA        -70.4297   27.0994  -77.1537 C.3       8 UNK         0.0270 
     31 CB        -69.1399   27.1918  -76.3194 C.3       8 UNK        -0.1976 
     32 N         -71.2894   26.0665  -76.5672 N.am      8 UNK        -0.4313 
     33 C         -72.2871   25.4290  -77.1941 C.2       8 UNK         0.5041 
     34 O         -72.5712   25.6004  -78.3800 O.2       8 UNK        -0.5577 
     35 CA        -73.1401   24.4649  -76.3448 C.3       7 UNK         0.0284 
     36 CB        -72.3968   23.8866  -75.1195 C.3       7 UNK        -0.1958 
     37 N         -74.4073   25.0750  -75.9268 N.am      7 UNK        -0.4454 
     38 C         -74.5688   26.2312  -75.2640 C.2       7 UNK         0.5089 
     39 O         -73.6463   26.9645  -74.9029 O.2       7 UNK        -0.5125 
     40 CA        -76.0081   26.6522  -74.9462 C.3       6 UNK         0.0408 
     41 CB        -76.6838   27.2638  -76.1826 C.3       6 UNK        -0.1791 
     42 N         -76.8444   25.5827  -74.4073 N.am      6 UNK        -0.4762 
     43 C         -76.6066   24.8660  -73.2969 C.2       6 UNK         0.5007 
     44 O         -75.5635   24.9049  -72.6444 O.2       6 UNK        -0.5032 
     45 CA        -77.7543   23.9444  -72.8507 C.3       5 UNK         0.0783 
     46 C46       -78.9868   24.7667  -72.3693 C.3       11 UNK        -0.0857 
     47 S47       -79.1705   24.8598  -70.5562 S.3       11 UNK        -0.2512 
     48 C48       -77.7384   25.8545  -70.0042 C.3       11 UNK         0.0225 
     49 N         -78.0875   23.0510  -73.9601 N.am      5 UNK        -0.4615 
     50 C         -77.4072   21.9394  -74.2703 C.2       4 UNK         0.5053 
     51 O         -76.5183   21.4627  -73.5646 O.2       4 UNK        -0.5105 
     52 CA        -77.7689   21.2371  -75.5925 C.3       4 UNK         0.0263 
     53 CB        -78.7354   20.0704  -75.3321 C.3       4 UNK        -0.1981 
     54 N         -78.3566   22.1336  -76.5919 N.am      4 UNK        -0.4224 
     55 C         -77.7046   23.1272  -77.2132 C.2       3 UNK         0.4895 
     56 O         -76.5121   23.3852  -77.0439 O.2       3 UNK        -0.5091 
     57 CA        -78.5467   24.0186  -78.1437 C.3       3 UNK         0.0250 
     58 CB        -78.6286   23.4028  -79.5495 C.3       3 UNK        -0.1996 
     59 N         -79.9026   24.2974  -77.6475 N.am      3 UNK        -0.4254 
     60 C         -80.1830   24.8718  -76.4692 C.2       2 UNK         0.5004 
     61 O         -79.3292   25.1565  -75.6265 O.2       2 UNK        -0.5226 
     62 CA        -81.6629   25.1279  -76.1458 C.3       2 UNK         0.0269 
     63 CB        -82.2677   23.9121  -75.4254 C.3       2 UNK        -0.1926 
     64 N         -81.8013   26.3069  -75.2880 N.am      2 UNK        -0.4687 
     65 C         -81.5911   27.5668  -75.6973 C.2       1 UNK         0.5165 
     66 O         -81.4120   27.8726  -76.8776 O.2       1 UNK        -0.5079 
     67 H67       -83.2336   27.5406  -71.1528 H         1 UNK         0.0900 
     68 H68       -84.6730   28.5311  -71.3990 H         1 UNK         0.0900 
     69 H69       -84.6535   26.8511  -71.9419 H         1 UNK         0.0900 
     70 H70       -81.6076   28.0409  -72.6056 H         1 UNK         0.2959 
     71 H71       -82.1015   29.5220  -75.0404 H         1 UNK         0.1079 
     72 H72       -79.5730   29.2763  -75.3132 H         1 UNK         0.0837 
     73 H73       -79.5314   28.3396  -73.8501 H         1 UNK         0.0837 
     74 H74       -79.6096   31.0897  -71.1226 H         1 UNK         0.0685 
     75 H75       -80.6535   29.7159  -71.3740 H         1 UNK         0.0685 
     76 H76       -79.6593   27.7581  -70.5145 H         1 UNK         0.1434 
     77 H77       -75.4790   26.9629  -71.0094 H         1 UNK         0.1329 
     78 H78       -77.1440   30.6113  -72.5078 H         1 UNK         0.1335 
     79 H79       -74.9319   29.5496  -73.4085 H         1 UNK         0.0680 
     80 H80       -74.1726   28.3089  -72.4417 H         1 UNK         0.0680 
     81 H81       -71.6189   30.6073  -71.0552 H         1 UNK         0.1032 
     82 H82       -71.9985   29.1469  -71.9164 H         1 UNK         0.1032 
     83 H83       -72.1878   31.9398  -73.1741 H         1 UNK         0.0461 
     84 H84       -70.1703   32.8840  -72.6565 H         1 UNK         0.3453 
     85 H85       -68.6479   32.1340  -73.0592 H         1 UNK         0.3453 
     86 H86       -72.6676   29.2769  -74.2435 H         1 UNK         0.2984 
     87 H87       -74.1118   29.5353  -76.2782 H         1 UNK         0.0554 
     88 H88       -74.0851   31.3515  -77.9209 H         1 UNK         0.0847 
     89 H89       -73.7875   29.8274  -78.7419 H         1 UNK         0.0847 
     90 H90       -72.4594   30.9464  -78.4369 H         1 UNK         0.0847 
     91 H91       -72.7232   27.8260  -76.2776 H         1 UNK         0.3141 
     92 H92       -70.1596   26.7867  -78.1646 H         1 UNK         0.0743 
     93 H93       -69.3432   27.5186  -75.2985 H         1 UNK         0.0784 
     94 H94       -68.6265   26.2313  -76.2711 H         1 UNK         0.0784 
     95 H95       -68.4411   27.9076  -76.7547 H         1 UNK         0.0784 
     96 H96       -71.1675   25.8869  -75.5805 H         1 UNK         0.3213 
     97 H97       -73.4000   23.6292  -76.9968 H         1 UNK         0.0855 
     98 H98       -72.1908   24.6412  -74.3597 H         1 UNK         0.0814 
     99 H99       -71.4470   23.4353  -75.4101 H         1 UNK         0.0814 
    100 H100      -72.9892   23.1046  -74.6439 H         1 UNK         0.0814 
    101 H101      -75.2423   24.5643  -76.2069 H         1 UNK         0.3105 
    102 H102      -75.9625   27.4253  -74.1820 H         1 UNK         0.0547 
    103 H103      -76.1129   28.1110  -76.5635 H         1 UNK         0.0837 
    104 H104      -76.7707   26.5398  -76.9923 H         1 UNK         0.0837 
    105 H105      -77.6851   27.6260  -75.9499 H         1 UNK         0.0837 
    106 H106      -77.7405   25.4438  -74.8737 H         1 UNK         0.3020 
    107 H107      -77.3882   23.3345  -72.0213 H         1 UNK         0.1245 
    108 H108      -79.9048   24.3000  -72.7295 H         1 UNK         0.0781 
    109 H109      -79.0159   25.7768  -72.7835 H         1 UNK         0.0781 
    110 H110      -76.8361   25.2559  -70.1374 H         1 UNK         0.0836 
    111 H111      -77.8300   26.0252  -68.9309 H         1 UNK         0.0836 
    112 H112      -78.7541   23.4147  -74.6291 H         1 UNK         0.3022 
    113 H113      -76.8445   20.8312  -76.0091 H         1 UNK         0.0747 
    114 H114      -78.9388   19.5111  -76.2456 H         1 UNK         0.0793 
    115 H115      -78.3134   19.3676  -74.6121 H         1 UNK         0.0793 
    116 H116      -79.6882   20.4165  -74.9291 H         1 UNK         0.0793 
    117 H117      -79.3360   22.0038  -76.8001 H         1 UNK         0.3047 
    118 H118      -78.0313   24.9767  -78.2270 H         1 UNK         0.0822 
    119 H119      -79.1242   24.0756  -80.2497 H         1 UNK         0.0807 
    120 H120      -79.1733   22.4579  -79.5478 H         1 UNK         0.0807 
    121 H121      -77.6320   23.2037  -79.9468 H         1 UNK         0.0807 
    122 H122      -80.6635   24.0780  -78.2747 H         1 UNK         0.2946 
    123 H123      -82.2076   25.3045  -77.0762 H         1 UNK         0.1144 
    124 H124      -83.3200   24.0743  -75.1908 H         1 UNK         0.0793 
    125 H125      -81.7468   23.6927  -74.4924 H         1 UNK         0.0793 
    126 H126      -82.2114   23.0183  -76.0482 H         1 UNK         0.0793 
    127 H127      -81.9222   26.1426  -74.3001 H         1 UNK         0.2896 
@<TRIPOS>BOND
     1    1    2 1    
     2    1   67 1    
     3    1   68 1    
     4    1   69 1    
     5    2    3 2    
     6    2    4 am   BACKBONE|DICT|INTERRES
     7    4    5 1    
     8    4   70 1    
     9    5    6 1    
    10    5   65 1    
    11    5   71 1    
    12    6    7 1    
    13    6   72 1    
    14    6   73 1    
    15    7    8 1    
    16    8    9 1    
    17    8   74 1    
    18    8   75 1    
    19    9   10 ar   
    20    9   14 ar   
    21   10   11 ar   
    22   10   76 1    
    23   11   12 ar   
    24   11   48 1    
    25   12   13 ar   
    26   12   77 1    
    27   13   14 ar   
    28   13   15 1    
    29   14   78 1    
    30   15   16 1    
    31   15   79 1    
    32   15   80 1    
    33   16   17 1    
    34   17   18 1    
    35   17   81 1    
    36   17   82 1    
    37   18   19 1    
    38   18   22 1    
    39   18   83 1    
    40   19   20 am   BACKBONE|DICT|INTERRES
    41   19   21 2    
    42   20   84 1    
    43   20   85 1    
    44   22   23 am   BACKBONE|DICT|INTERRES
    45   22   86 1    
    46   23   24 2    
    47   23   25 1    
    48   25   26 1    
    49   25   27 1    
    50   25   87 1    
    51   26   88 1    
    52   26   89 1    
    53   26   90 1    
    54   27   28 am   BACKBONE|DICT|INTERRES
    55   27   91 1    
    56   28   29 2    
    57   28   30 1    
    58   30   31 1    
    59   30   32 1    
    60   30   92 1    
    61   31   93 1    
    62   31   94 1    
    63   31   95 1    
    64   32   33 am   BACKBONE|DICT|INTERRES
    65   32   96 1    
    66   33   34 2    
    67   33   35 1    
    68   35   36 1    
    69   35   37 1    
    70   35   97 1    
    71   36   98 1    
    72   36   99 1    
    73   36  100 1    
    74   37   38 am   BACKBONE|DICT|INTERRES
    75   37  101 1    
    76   38   39 2    
    77   38   40 1    
    78   40   41 1    
    79   40   42 1    
    80   40  102 1    
    81   41  103 1    
    82   41  104 1    
    83   41  105 1    
    84   42   43 am   BACKBONE|DICT|INTERRES
    85   42  106 1    
    86   43   44 2    
    87   43   45 1    
    88   45   46 1    
    89   45   49 1    
    90   45  107 1    
    91   46   47 1    
    92   46  108 1    
    93   46  109 1    
    94   47   48 1    
    95   48  110 1    
    96   48  111 1    
    97   49   50 am   BACKBONE|DICT|INTERRES
    98   49  112 1    
    99   50   51 2    
   100   50   52 1    
   101   52   53 1    
   102   52   54 1    
   103   52  113 1    
   104   53  114 1    
   105   53  115 1    
   106   53  116 1    
   107   54   55 am   BACKBONE|DICT|INTERRES
   108   54  117 1    
   109   55   56 2    
   110   55   57 1    
   111   57   58 1    
   112   57   59 1    
   113   57  118 1    
   114   58  119 1    
   115   58  120 1    
   116   58  121 1    
   117   59   60 am   BACKBONE|DICT|INTERRES
   118   59  122 1    
   119   60   61 2    
   120   60   62 1    
   121   62   63 1    
   122   62   64 1    
   123   62  123 1    
   124   63  124 1    
   125   63  125 1    
   126   63  126 1    
   127   64   65 am   BACKBONE|DICT|INTERRES
   128   64  127 1    
   129   65   66 2    
@<TRIPOS>SUBSTRUCTURE
     1 UNK         1 GROUP             0       ****    0 ROOT    
