@<TRIPOS>MOLECULE
3R135
127   129    1
SMALL
USER_CHARGES


@<TRIPOS>ATOM
      1 CA        -78.0964   28.8835  -76.8460 C.3       0 UNK        -0.1998 
      2 C         -78.3955   27.8813  -75.7433 C.2       0 UNK         0.4909 
      3 O         -77.9023   26.7523  -75.7855 O.2       0 UNK        -0.5240 
      4 N         -79.2192   28.2905  -74.7702 N.am      1 UNK        -0.4739 
      5 CA        -79.7073   27.4624  -73.6633 C.3       1 UNK         0.0864 
      6 C6        -80.4542   28.3285  -72.6153 C.3       11 UNK        -0.0881 
      7 S7        -80.6253   27.5031  -70.9986 S.3       11 UNK        -0.2682 
      8 C8        -79.5087   28.4977  -69.9597 C.3       11 UNK         0.0289 
      9 C9        -78.0568   28.3490  -70.3886 C.ar      11 UNK        -0.0687 
     10 C10       -77.3828   27.1484  -70.1520 C.ar      11 UNK        -0.0823 
     11 C11       -76.0520   26.9935  -70.5469 C.ar      11 UNK        -0.0830 
     12 C12       -75.3901   28.0571  -71.1661 C.ar      11 UNK        -0.1021 
     13 C13       -76.0549   29.2588  -71.4171 C.ar      11 UNK        -0.0753 
     14 C14       -77.3888   29.4020  -71.0226 C.ar      11 UNK        -0.0933 
     15 C15       -75.3316   30.3965  -72.1182 C.3       11 UNK         0.0166 
     16 S16       -75.5202   30.2810  -73.9218 S.3       11 UNK        -0.2615 
     17 C17       -74.7916   31.8713  -74.4406 C.3       11 UNK        -0.0865 
     18 CA        -73.5818   31.7166  -75.4075 C.3       10 UNK         0.0862 
     19 C         -73.1299   33.0775  -76.0211 C.2       10 UNK         0.5551 
     20 N         -71.8526   33.2748  -76.3233 N.am      10 UNK        -0.7319 
     21 O         -73.9505   33.9603  -76.2577 O.2       10 UNK        -0.5018 
     22 N         -72.4792   30.8989  -74.8672 N.am      10 UNK        -0.4509 
     23 C         -71.7411   31.1616  -73.7777 C.2       10 UNK         0.4899 
     24 O         -71.9456   32.1189  -73.0303 O.2       10 UNK        -0.4839 
     25 CA        -70.5374   30.2328  -73.4996 C.3       9 UNK         0.0222 
     26 CB        -70.2033   30.1183  -71.9962 C.3       9 UNK        -0.1966 
     27 N         -70.6498   28.9139  -74.1391 N.am      9 UNK        -0.4218 
     28 C         -71.5171   27.9380  -73.8346 C.2       9 UNK         0.5020 
     29 O         -72.2775   27.9572  -72.8675 O.2       9 UNK        -0.5274 
     30 CA        -71.5907   26.7658  -74.8289 C.3       8 UNK         0.0270 
     31 CB        -71.4742   25.4080  -74.1184 C.3       8 UNK        -0.1976 
     32 N         -72.8463   26.8248  -75.5814 N.am      8 UNK        -0.4313 
     33 C         -73.1638   27.8129  -76.4313 C.2       8 UNK         0.5041 
     34 O         -72.3741   28.7091  -76.7401 O.2       8 UNK        -0.5577 
     35 CA        -74.5955   27.8483  -77.0002 C.3       7 UNK         0.0284 
     36 CB        -74.6641   28.5527  -78.3727 C.3       7 UNK        -0.1958 
     37 N         -75.2715   26.5472  -77.0441 N.am      7 UNK        -0.4454 
     38 C         -74.9039   25.4633  -77.7420 C.2       7 UNK         0.5089 
     39 O         -73.9091   25.4112  -78.4669 O.2       7 UNK        -0.5125 
     40 CA        -75.8155   24.2302  -77.5876 C.3       6 UNK         0.0408 
     41 CB        -75.1676   22.9314  -78.1098 C.3       6 UNK        -0.1791 
     42 N         -76.3081   24.0436  -76.2169 N.am      6 UNK        -0.4762 
     43 C         -75.5798   23.8667  -75.1019 C.2       6 UNK         0.5007 
     44 O         -74.3492   23.8884  -75.0855 O.2       6 UNK        -0.5032 
     45 CA        -76.3573   23.6146  -73.7884 C.3       5 UNK         0.0783 
     46 C46       -76.3291   24.8450  -72.8507 C.3       11 UNK        -0.0857 
     47 S47       -74.7797   24.9257  -71.8891 S.3       11 UNK        -0.2512 
     48 C48       -75.3367   25.6696  -70.3236 C.3       11 UNK         0.0225 
     49 N         -77.7318   23.1729  -74.0501 N.am      5 UNK        -0.4615 
     50 C         -78.0644   21.9133  -74.3679 C.2       4 UNK         0.5053 
     51 O         -77.2752   20.9687  -74.3599 O.2       4 UNK        -0.5105 
     52 CA        -79.5127   21.6839  -74.8155 C.3       4 UNK         0.0263 
     53 CB        -80.4616   21.6226  -73.6075 C.3       4 UNK        -0.1981 
     54 N         -79.9403   22.7464  -75.7242 N.am      4 UNK        -0.4224 
     55 C         -79.6648   22.7929  -77.0366 C.2       3 UNK         0.4895 
     56 O         -79.0569   21.9020  -77.6303 O.2       3 UNK        -0.5091 
     57 CA        -80.0942   24.0534  -77.8202 C.3       3 UNK         0.0250 
     58 CB        -80.7544   23.7038  -79.1704 C.3       3 UNK        -0.1996 
     59 N         -80.9190   24.9896  -77.0448 N.am      3 UNK        -0.4254 
     60 C         -82.1472   24.7863  -76.5424 C.2       2 UNK         0.5004 
     61 O         -82.8336   23.7938  -76.7875 O.2       2 UNK        -0.5226 
     62 CA        -82.6746   25.8504  -75.5587 C.3       2 UNK         0.0269 
     63 CB        -83.5489   25.2276  -74.4492 C.3       2 UNK        -0.1926 
     64 N         -81.6292   26.6969  -74.9598 N.am      2 UNK        -0.4687 
     65 C         -80.5935   26.3159  -74.1906 C.2       1 UNK         0.5165 
     66 O         -80.2962   25.1424  -73.9538 O.2       1 UNK        -0.5079 
     67 H67       -77.8806   28.3661  -77.7800 H         1 UNK         0.0900 
     68 H68       -78.9450   29.5444  -77.0207 H         1 UNK         0.0900 
     69 H69       -77.2370   29.4975  -76.5810 H         1 UNK         0.0900 
     70 H70       -79.5674   29.2381  -74.7956 H         1 UNK         0.2959 
     71 H71       -78.8318   27.0156  -73.1858 H         1 UNK         0.1079 
     72 H72       -81.4472   28.6175  -72.9642 H         1 UNK         0.0837 
     73 H73       -79.9222   29.2688  -72.4672 H         1 UNK         0.0837 
     74 H74       -79.8208   29.5425  -69.9872 H         1 UNK         0.0685 
     75 H75       -79.6117   28.1759  -68.9229 H         1 UNK         0.0685 
     76 H76       -77.9047   26.3309  -69.6733 H         1 UNK         0.1434 
     77 H77       -74.3623   27.9376  -71.4769 H         1 UNK         0.1329 
     78 H78       -77.9065   30.3312  -71.2167 H         1 UNK         0.1335 
     79 H79       -74.2707   30.3848  -71.8667 H         1 UNK         0.0680 
     80 H80       -75.7245   31.3516  -71.7708 H         1 UNK         0.0680 
     81 H81       -75.5910   32.4346  -74.9241 H         1 UNK         0.1032 
     82 H82       -74.5072   32.4606  -73.5681 H         1 UNK         0.1032 
     83 H83       -73.9439   31.1511  -76.2664 H         1 UNK         0.0461 
     84 H84       -71.1721   32.5525  -76.1548 H         1 UNK         0.3453 
     85 H85       -71.5697   34.1525  -76.7295 H         1 UNK         0.3453 
     86 H86       -72.2413   30.0905  -75.4366 H         1 UNK         0.2984 
     87 H87       -69.6839   30.7136  -73.9791 H         1 UNK         0.0554 
     88 H88       -69.9308   31.0898  -71.5823 H         1 UNK         0.0847 
     89 H89       -69.3618   29.4477  -71.8247 H         1 UNK         0.0847 
     90 H90       -71.0508   29.7506  -71.4176 H         1 UNK         0.0847 
     91 H91       -70.0982   28.7978  -74.9788 H         1 UNK         0.3141 
     92 H92       -70.7650   26.8432  -75.5394 H         1 UNK         0.0743 
     93 H93       -72.2856   25.2538  -73.4074 H         1 UNK         0.0784 
     94 H94       -71.4966   24.5835  -74.8314 H         1 UNK         0.0784 
     95 H95       -70.5373   25.3364  -73.5646 H         1 UNK         0.0784 
     96 H96       -73.5354   26.1134  -75.3730 H         1 UNK         0.3213 
     97 H97       -75.1636   28.4504  -76.2922 H         1 UNK         0.0855 
     98 H98       -74.0311   28.0584  -79.1102 H         1 UNK         0.0814 
     99 H99       -74.3269   29.5873  -78.3001 H         1 UNK         0.0814 
    100 H100      -75.6798   28.5730  -78.7653 H         1 UNK         0.0814 
    101 H101      -76.1235   26.4765  -76.4907 H         1 UNK         0.3105 
    102 H102      -76.6935   24.4275  -78.2035 H         1 UNK         0.0547 
    103 H103      -75.8471   22.0845  -78.0130 H         1 UNK         0.0837 
    104 H104      -74.2513   22.6910  -77.5699 H         1 UNK         0.0837 
    105 H105      -74.9094   23.0190  -79.1657 H         1 UNK         0.0837 
    106 H106      -77.3108   24.0622  -76.1056 H         1 UNK         0.3020 
    107 H107      -75.8429   22.7939  -73.2820 H         1 UNK         0.1245 
    108 H108      -77.1560   24.7861  -72.1408 H         1 UNK         0.0781 
    109 H109      -76.4706   25.7797  -73.3979 H         1 UNK         0.0781 
    110 H110      -74.4710   25.8341  -69.6808 H         1 UNK         0.0836 
    111 H111      -75.9788   24.9582  -69.8018 H         1 UNK         0.0836 
    112 H112      -78.4527   23.8849  -74.0462 H         1 UNK         0.3022 
    113 H113      -79.5623   20.7256  -75.3374 H         1 UNK         0.0747 
    114 H114      -81.4876   21.4296  -73.9213 H         1 UNK         0.0793 
    115 H115      -80.1737   20.8199  -72.9274 H         1 UNK         0.0793 
    116 H116      -80.4572   22.5517  -73.0361 H         1 UNK         0.0793 
    117 H117      -80.4024   23.5415  -75.2972 H         1 UNK         0.3047 
    118 H118      -79.1719   24.5923  -78.0403 H         1 UNK         0.0822 
    119 H119      -81.0407   24.6022  -79.7172 H         1 UNK         0.0807 
    120 H120      -81.6460   23.0899  -79.0416 H         1 UNK         0.0807 
    121 H121      -80.0684   23.1441  -79.8073 H         1 UNK         0.0807 
    122 H122      -80.4495   25.8379  -76.7592 H         1 UNK         0.2946 
    123 H123      -83.3098   26.5118  -76.1502 H         1 UNK         0.1144 
    124 H124      -83.9272   25.9894  -73.7675 H         1 UNK         0.0793 
    125 H125      -82.9944   24.4966  -73.8598 H         1 UNK         0.0793 
    126 H126      -84.4151   24.7156  -74.8701 H         1 UNK         0.0793 
    127 H127      -81.7336   27.6875  -75.1315 H         1 UNK         0.2896 
@<TRIPOS>BOND
     1    1    2 1    
     2    1   67 1    
     3    1   68 1    
     4    1   69 1    
     5    2    3 2    
     6    2    4 am   BACKBONE|DICT|INTERRES
     7    4    5 1    
     8    4   70 1    
     9    5    6 1    
    10    5   65 1    
    11    5   71 1    
    12    6    7 1    
    13    6   72 1    
    14    6   73 1    
    15    7    8 1    
    16    8    9 1    
    17    8   74 1    
    18    8   75 1    
    19    9   10 ar   
    20    9   14 ar   
    21   10   11 ar   
    22   10   76 1    
    23   11   12 ar   
    24   11   48 1    
    25   12   13 ar   
    26   12   77 1    
    27   13   14 ar   
    28   13   15 1    
    29   14   78 1    
    30   15   16 1    
    31   15   79 1    
    32   15   80 1    
    33   16   17 1    
    34   17   18 1    
    35   17   81 1    
    36   17   82 1    
    37   18   19 1    
    38   18   22 1    
    39   18   83 1    
    40   19   20 am   BACKBONE|DICT|INTERRES
    41   19   21 2    
    42   20   84 1    
    43   20   85 1    
    44   22   23 am   BACKBONE|DICT|INTERRES
    45   22   86 1    
    46   23   24 2    
    47   23   25 1    
    48   25   26 1    
    49   25   27 1    
    50   25   87 1    
    51   26   88 1    
    52   26   89 1    
    53   26   90 1    
    54   27   28 am   BACKBONE|DICT|INTERRES
    55   27   91 1    
    56   28   29 2    
    57   28   30 1    
    58   30   31 1    
    59   30   32 1    
    60   30   92 1    
    61   31   93 1    
    62   31   94 1    
    63   31   95 1    
    64   32   33 am   BACKBONE|DICT|INTERRES
    65   32   96 1    
    66   33   34 2    
    67   33   35 1    
    68   35   36 1    
    69   35   37 1    
    70   35   97 1    
    71   36   98 1    
    72   36   99 1    
    73   36  100 1    
    74   37   38 am   BACKBONE|DICT|INTERRES
    75   37  101 1    
    76   38   39 2    
    77   38   40 1    
    78   40   41 1    
    79   40   42 1    
    80   40  102 1    
    81   41  103 1    
    82   41  104 1    
    83   41  105 1    
    84   42   43 am   BACKBONE|DICT|INTERRES
    85   42  106 1    
    86   43   44 2    
    87   43   45 1    
    88   45   46 1    
    89   45   49 1    
    90   45  107 1    
    91   46   47 1    
    92   46  108 1    
    93   46  109 1    
    94   47   48 1    
    95   48  110 1    
    96   48  111 1    
    97   49   50 am   BACKBONE|DICT|INTERRES
    98   49  112 1    
    99   50   51 2    
   100   50   52 1    
   101   52   53 1    
   102   52   54 1    
   103   52  113 1    
   104   53  114 1    
   105   53  115 1    
   106   53  116 1    
   107   54   55 am   BACKBONE|DICT|INTERRES
   108   54  117 1    
   109   55   56 2    
   110   55   57 1    
   111   57   58 1    
   112   57   59 1    
   113   57  118 1    
   114   58  119 1    
   115   58  120 1    
   116   58  121 1    
   117   59   60 am   BACKBONE|DICT|INTERRES
   118   59  122 1    
   119   60   61 2    
   120   60   62 1    
   121   62   63 1    
   122   62   64 1    
   123   62  123 1    
   124   63  124 1    
   125   63  125 1    
   126   63  126 1    
   127   64   65 am   BACKBONE|DICT|INTERRES
   128   64  127 1    
   129   65   66 2    
@<TRIPOS>SUBSTRUCTURE
     1 UNK         1 GROUP             0       ****    0 ROOT    
