@<TRIPOS>MOLECULE
3R135
127   129    1
SMALL
USER_CHARGES


@<TRIPOS>ATOM
      1 CA        -81.7864   30.7295  -76.7652 C.3       0 UNK        -0.1998 
      2 C         -81.2626   29.6449  -75.8356 C.2       0 UNK         0.4909 
      3 O         -80.2888   28.9718  -76.1706 O.2       0 UNK        -0.5240 
      4 N         -81.8976   29.4786  -74.6690 N.am      1 UNK        -0.4739 
      5 CA        -81.5642   28.4672  -73.6585 C.3       1 UNK         0.0864 
      6 C6        -82.3021   28.7442  -72.3236 C.3       11 UNK        -0.0881 
      7 S7        -81.8404   30.3535  -71.5904 S.3       11 UNK        -0.2682 
      8 C8        -80.7697   29.8599  -70.2009 C.3       11 UNK         0.0289 
      9 C9        -79.4229   29.3359  -70.6786 C.ar      11 UNK        -0.0687 
     10 C10       -79.2343   27.9663  -70.8815 C.ar      11 UNK        -0.0823 
     11 C11       -78.0106   27.4757  -71.3445 C.ar      11 UNK        -0.0830 
     12 C12       -76.9591   28.3690  -71.5766 C.ar      11 UNK        -0.1021 
     13 C13       -77.1234   29.7378  -71.3463 C.ar      11 UNK        -0.0753 
     14 C14       -78.3622   30.2179  -70.9092 C.ar      11 UNK        -0.0933 
     15 C15       -75.9470   30.6843  -71.5306 C.3       11 UNK         0.0166 
     16 S16       -75.4190   30.8017  -73.2688 S.3       11 UNK        -0.2615 
     17 C17       -73.8777   31.7708  -73.0776 C.3       11 UNK        -0.0865 
     18 CA        -72.5707   30.9353  -73.1963 C.3       10 UNK         0.0862 
     19 C         -72.3771   29.9187  -72.0405 C.2       10 UNK         0.5551 
     20 N         -72.1568   30.4001  -70.8246 N.am      10 UNK        -0.7319 
     21 O         -72.4314   28.7049  -72.2295 O.2       10 UNK        -0.5018 
     22 N         -72.4482   30.2808  -74.5012 N.am      10 UNK        -0.4509 
     23 C         -71.9842   30.8462  -75.6193 C.2       10 UNK         0.4899 
     24 O         -71.6101   32.0184  -75.6849 O.2       10 UNK        -0.4839 
     25 CA        -71.9563   29.9627  -76.8815 C.3       9 UNK         0.0222 
     26 CB        -70.9017   30.4155  -77.9145 C.3       9 UNK        -0.1966 
     27 N         -71.8467   28.5265  -76.5926 N.am      9 UNK        -0.4218 
     28 C         -70.7999   27.8668  -76.0676 C.2       9 UNK         0.5020 
     29 O         -69.7424   28.4112  -75.7475 O.2       9 UNK        -0.5274 
     30 CA        -70.9416   26.3446  -75.8426 C.3       8 UNK         0.0270 
     31 CB        -70.9055   26.0165  -74.3406 C.3       8 UNK        -0.1976 
     32 N         -72.1563   25.7659  -76.4259 N.am      8 UNK        -0.4313 
     33 C         -72.3645   25.5860  -77.7401 C.2       8 UNK         0.5041 
     34 O         -71.4969   25.7716  -78.5941 O.2       8 UNK        -0.5577 
     35 CA        -73.7803   25.1717  -78.1952 C.3       7 UNK         0.0284 
     36 CB        -73.8190   23.6656  -78.5021 C.3       7 UNK        -0.1958 
     37 N         -74.8479   25.4937  -77.2411 N.am      7 UNK        -0.4454 
     38 C         -75.1148   26.7049  -76.7299 C.2       7 UNK         0.5089 
     39 O         -74.5594   27.7373  -77.1040 O.2       7 UNK        -0.5125 
     40 CA        -76.0980   26.7733  -75.5480 C.3       6 UNK         0.0408 
     41 CB        -77.4668   27.2919  -76.0050 C.3       6 UNK        -0.1791 
     42 N         -76.2722   25.5035  -74.8357 N.am      6 UNK        -0.4762 
     43 C         -75.3105   24.8374  -74.1765 C.2       6 UNK         0.5007 
     44 O         -74.1303   25.1905  -74.1614 O.2       6 UNK        -0.5032 
     45 CA        -75.7245   23.5265  -73.4744 C.3       5 UNK         0.0783 
     46 C46       -76.3979   23.6707  -72.0701 C.3       11 UNK        -0.0857 
     47 S47       -76.2646   25.2697  -71.1903 S.3       11 UNK        -0.2512 
     48 C48       -77.8722   25.9913  -71.6517 C.3       11 UNK         0.0225 
     49 N         -76.5695   22.7473  -74.3828 N.am      5 UNK        -0.4615 
     50 C         -76.1241   21.8058  -75.2235 C.2       4 UNK         0.5053 
     51 O         -74.9479   21.4498  -75.2925 O.2       4 UNK        -0.5105 
     52 CA        -77.1630   21.1405  -76.1454 C.3       4 UNK         0.0263 
     53 CB        -77.6933   19.8472  -75.5061 C.3       4 UNK        -0.1981 
     54 N         -78.2946   22.0068  -76.4903 N.am      4 UNK        -0.4224 
     55 C         -78.2010   23.1169  -77.2353 C.2       3 UNK         0.4895 
     56 O         -77.1457   23.5388  -77.7065 O.2       3 UNK        -0.5091 
     57 CA        -79.4980   23.9116  -77.4699 C.3       3 UNK         0.0250 
     58 CB        -80.2631   23.3385  -78.6737 C.3       3 UNK        -0.1996 
     59 N         -80.4051   24.0094  -76.3166 N.am      3 UNK        -0.4254 
     60 C         -80.0660   24.4070  -75.0824 C.2       2 UNK         0.5004 
     61 O         -78.9062   24.5883  -74.7078 O.2       2 UNK        -0.5226 
     62 CA        -81.2033   24.6533  -74.0865 C.3       2 UNK         0.0269 
     63 CB        -81.0632   23.7312  -72.8635 C.3       2 UNK        -0.1926 
     64 N         -81.1308   26.0498  -73.6538 N.am      2 UNK        -0.4687 
     65 C         -81.8749   27.0398  -74.1636 C.2       1 UNK         0.5165 
     66 O         -82.7912   26.8563  -74.9702 O.2       1 UNK        -0.5079 
     67 H67       -82.6400   31.2556  -76.3382 H         1 UNK         0.0900 
     68 H68       -81.0038   31.4603  -76.9668 H         1 UNK         0.0900 
     69 H69       -82.0971   30.2918  -77.7134 H         1 UNK         0.0900 
     70 H70       -82.6941   30.0595  -74.4510 H         1 UNK         0.2959 
     71 H71       -80.4876   28.5291  -73.4829 H         1 UNK         0.1079 
     72 H72       -82.1151   27.9521  -71.5972 H         1 UNK         0.0837 
     73 H73       -83.3823   28.7444  -72.4824 H         1 UNK         0.0837 
     74 H74       -80.6165   30.7252  -69.5542 H         1 UNK         0.0685 
     75 H75       -81.2794   29.1139  -69.5891 H         1 UNK         0.0685 
     76 H76       -80.0503   27.2825  -70.6934 H         1 UNK         0.1434 
     77 H77       -76.0073   28.0038  -71.9387 H         1 UNK         0.1329 
     78 H78       -78.5009   31.2769  -70.7387 H         1 UNK         0.1335 
     79 H79       -75.1173   30.3275  -70.9195 H         1 UNK         0.0680 
     80 H80       -76.1926   31.6830  -71.1660 H         1 UNK         0.0680 
     81 H81       -73.8784   32.5442  -73.8470 H         1 UNK         0.1032 
     82 H82       -73.8979   32.3153  -72.1322 H         1 UNK         0.1032 
     83 H83       -71.7296   31.6260  -73.1072 H         1 UNK         0.0461 
     84 H84       -72.0954   31.3917  -70.6549 H         1 UNK         0.3453 
     85 H85       -72.0297   29.7540  -70.0615 H         1 UNK         0.3453 
     86 H86       -72.7024   29.3026  -74.5050 H         1 UNK         0.2984 
     87 H87       -72.9348   30.0895  -77.3466 H         1 UNK         0.0554 
     88 H88       -71.0991   31.4330  -78.2539 H         1 UNK         0.0847 
     89 H89       -70.9090   29.7749  -78.7963 H         1 UNK         0.0847 
     90 H90       -69.8939   30.4046  -77.4988 H         1 UNK         0.0847 
     91 H91       -72.6926   27.9999  -76.7978 H         1 UNK         0.3141 
     92 H92       -70.0791   25.8690  -76.3140 H         1 UNK         0.0743 
     93 H93       -71.7334   26.4848  -73.8066 H         1 UNK         0.0784 
     94 H94       -70.9599   24.9419  -74.1658 H         1 UNK         0.0784 
     95 H95       -69.9818   26.3728  -73.8826 H         1 UNK         0.0784 
     96 H96       -72.9146   25.5689  -75.7785 H         1 UNK         0.3213 
     97 H97       -73.9934   25.7178  -79.1163 H         1 UNK         0.0855 
     98 H98       -73.6893   23.0667  -77.5995 H         1 UNK         0.0814 
     99 H99       -73.0267   23.3856  -79.1978 H         1 UNK         0.0814 
    100 H100      -74.7644   23.3784  -78.9623 H         1 UNK         0.0814 
    101 H101      -75.4208   24.7187  -76.9289 H         1 UNK         0.3105 
    102 H102      -75.6899   27.4899  -74.8319 H         1 UNK         0.0547 
    103 H103      -77.3766   28.2670  -76.4855 H         1 UNK         0.0837 
    104 H104      -77.9348   26.6176  -76.7209 H         1 UNK         0.0837 
    105 H105      -78.1482   27.4115  -75.1623 H         1 UNK         0.0837 
    106 H106      -77.2221   25.1342  -74.8118 H         1 UNK         0.3020 
    107 H107      -74.7889   22.9855  -73.3116 H         1 UNK         0.1245 
    108 H108      -75.9888   22.9067  -71.4073 H         1 UNK         0.0781 
    109 H109      -77.4596   23.4254  -72.1354 H         1 UNK         0.0781 
    110 H110      -78.6568   25.4215  -71.1519 H         1 UNK         0.0836 
    111 H111      -78.0244   25.8676  -72.7213 H         1 UNK         0.0836 
    112 H112      -77.5406   23.0306  -74.4424 H         1 UNK         0.3022 
    113 H113      -76.6509   20.8776  -77.0737 H         1 UNK         0.0747 
    114 H114      -78.3618   19.3143  -76.1827 H         1 UNK         0.0793 
    115 H115      -76.8748   19.1683  -75.2621 H         1 UNK         0.0793 
    116 H116      -78.2375   20.0465  -74.5819 H         1 UNK         0.0793 
    117 H117      -79.2023   21.7420  -76.1362 H         1 UNK         0.3047 
    118 H118      -79.2020   24.9309  -77.7225 H         1 UNK         0.0822 
    119 H119      -81.1083   23.9709  -78.9458 H         1 UNK         0.0807 
    120 H120      -80.6438   22.3365  -78.4716 H         1 UNK         0.0807 
    121 H121      -79.6181   23.2712  -79.5512 H         1 UNK         0.0807 
    122 H122      -81.3852   23.8734  -76.5193 H         1 UNK         0.2946 
    123 H123      -82.1640   24.4460  -74.5640 H         1 UNK         0.1144 
    124 H124      -81.8534   23.9174  -72.1359 H         1 UNK         0.0793 
    125 H125      -80.1063   23.8609  -72.3577 H         1 UNK         0.0793 
    126 H126      -81.1346   22.6831  -73.1571 H         1 UNK         0.0793 
    127 H127      -80.3661   26.2791  -73.0373 H         1 UNK         0.2896 
@<TRIPOS>BOND
     1    1    2 1    
     2    1   67 1    
     3    1   68 1    
     4    1   69 1    
     5    2    3 2    
     6    2    4 am   BACKBONE|DICT|INTERRES
     7    4    5 1    
     8    4   70 1    
     9    5    6 1    
    10    5   65 1    
    11    5   71 1    
    12    6    7 1    
    13    6   72 1    
    14    6   73 1    
    15    7    8 1    
    16    8    9 1    
    17    8   74 1    
    18    8   75 1    
    19    9   10 ar   
    20    9   14 ar   
    21   10   11 ar   
    22   10   76 1    
    23   11   12 ar   
    24   11   48 1    
    25   12   13 ar   
    26   12   77 1    
    27   13   14 ar   
    28   13   15 1    
    29   14   78 1    
    30   15   16 1    
    31   15   79 1    
    32   15   80 1    
    33   16   17 1    
    34   17   18 1    
    35   17   81 1    
    36   17   82 1    
    37   18   19 1    
    38   18   22 1    
    39   18   83 1    
    40   19   20 am   BACKBONE|DICT|INTERRES
    41   19   21 2    
    42   20   84 1    
    43   20   85 1    
    44   22   23 am   BACKBONE|DICT|INTERRES
    45   22   86 1    
    46   23   24 2    
    47   23   25 1    
    48   25   26 1    
    49   25   27 1    
    50   25   87 1    
    51   26   88 1    
    52   26   89 1    
    53   26   90 1    
    54   27   28 am   BACKBONE|DICT|INTERRES
    55   27   91 1    
    56   28   29 2    
    57   28   30 1    
    58   30   31 1    
    59   30   32 1    
    60   30   92 1    
    61   31   93 1    
    62   31   94 1    
    63   31   95 1    
    64   32   33 am   BACKBONE|DICT|INTERRES
    65   32   96 1    
    66   33   34 2    
    67   33   35 1    
    68   35   36 1    
    69   35   37 1    
    70   35   97 1    
    71   36   98 1    
    72   36   99 1    
    73   36  100 1    
    74   37   38 am   BACKBONE|DICT|INTERRES
    75   37  101 1    
    76   38   39 2    
    77   38   40 1    
    78   40   41 1    
    79   40   42 1    
    80   40  102 1    
    81   41  103 1    
    82   41  104 1    
    83   41  105 1    
    84   42   43 am   BACKBONE|DICT|INTERRES
    85   42  106 1    
    86   43   44 2    
    87   43   45 1    
    88   45   46 1    
    89   45   49 1    
    90   45  107 1    
    91   46   47 1    
    92   46  108 1    
    93   46  109 1    
    94   47   48 1    
    95   48  110 1    
    96   48  111 1    
    97   49   50 am   BACKBONE|DICT|INTERRES
    98   49  112 1    
    99   50   51 2    
   100   50   52 1    
   101   52   53 1    
   102   52   54 1    
   103   52  113 1    
   104   53  114 1    
   105   53  115 1    
   106   53  116 1    
   107   54   55 am   BACKBONE|DICT|INTERRES
   108   54  117 1    
   109   55   56 2    
   110   55   57 1    
   111   57   58 1    
   112   57   59 1    
   113   57  118 1    
   114   58  119 1    
   115   58  120 1    
   116   58  121 1    
   117   59   60 am   BACKBONE|DICT|INTERRES
   118   59  122 1    
   119   60   61 2    
   120   60   62 1    
   121   62   63 1    
   122   62   64 1    
   123   62  123 1    
   124   63  124 1    
   125   63  125 1    
   126   63  126 1    
   127   64   65 am   BACKBONE|DICT|INTERRES
   128   64  127 1    
   129   65   66 2    
@<TRIPOS>SUBSTRUCTURE
     1 UNK         1 GROUP             0       ****    0 ROOT    
