@<TRIPOS>MOLECULE
3R135
127   129    1
SMALL
USER_CHARGES


@<TRIPOS>ATOM
      1 CA        -82.2688   21.7804  -72.2281 C.3       0 UNK        -0.1998 
      2 C         -82.5764   23.2569  -72.4241 C.2       0 UNK         0.4909 
      3 O         -83.6812   23.6050  -72.8443 O.2       0 UNK        -0.5240 
      4 N         -81.6088   24.1310  -72.1215 N.am      1 UNK        -0.4739 
      5 CA        -81.6778   25.5837  -72.3050 C.3       1 UNK         0.0864 
      6 C6        -80.7144   26.3325  -71.3437 C.3       11 UNK        -0.0881 
      7 S7        -78.9849   25.7263  -71.3324 S.3       11 UNK        -0.2682 
      8 C8        -78.2339   26.7519  -70.0238 C.3       11 UNK         0.0289 
      9 C9        -77.4467   27.9416  -70.5664 C.ar      11 UNK        -0.0687 
     10 C10       -78.0318   28.8351  -71.4677 C.ar      11 UNK        -0.0823 
     11 C11       -77.3210   29.9362  -71.9460 C.ar      11 UNK        -0.0830 
     12 C12       -76.0293   30.1775  -71.4763 C.ar      11 UNK        -0.1021 
     13 C13       -75.4167   29.2842  -70.5939 C.ar      11 UNK        -0.0753 
     14 C14       -76.1305   28.1665  -70.1448 C.ar      11 UNK        -0.0933 
     15 C15       -73.9918   29.5326  -70.1161 C.3       11 UNK         0.0166 
     16 S16       -72.7575   29.2088  -71.4205 S.3       11 UNK        -0.2615 
     17 C17       -72.6551   30.8189  -72.2837 C.3       11 UNK        -0.0865 
     18 CA        -73.2684   30.7937  -73.7154 C.3       10 UNK         0.0862 
     19 C         -73.4375   32.2167  -74.3295 C.2       10 UNK         0.5551 
     20 N         -73.3148   32.3905  -75.6399 N.am      10 UNK        -0.7319 
     21 O         -73.7165   33.1759  -73.6142 O.2       10 UNK        -0.5018 
     22 N         -72.6339   29.8088  -74.6046 N.am      10 UNK        -0.4509 
     23 C         -71.3654   29.8005  -75.0340 C.2       10 UNK         0.4899 
     24 O         -70.5261   30.6494  -74.7288 O.2       10 UNK        -0.4839 
     25 CA        -70.9901   28.6435  -75.9806 C.3       9 UNK         0.0222 
     26 CB        -69.4734   28.5333  -76.2464 C.3       9 UNK        -0.1966 
     27 N         -71.5538   27.3631  -75.5378 N.am      9 UNK        -0.4218 
     28 C         -71.2828   26.6983  -74.4029 C.2       9 UNK         0.5020 
     29 O         -70.4076   27.0312  -73.6024 O.2       9 UNK        -0.5274 
     30 CA        -72.1366   25.4550  -74.0844 C.3       8 UNK         0.0270 
     31 CB        -73.0556   25.7376  -72.8832 C.3       8 UNK        -0.1976 
     32 N         -72.9564   24.9953  -75.2091 N.am      8 UNK        -0.4313 
     33 C         -72.4922   24.3428  -76.2834 C.2       8 UNK         0.5041 
     34 O         -71.3186   23.9952  -76.4186 O.2       8 UNK        -0.5577 
     35 CA        -73.4980   24.0621  -77.4151 C.3       7 UNK         0.0284 
     36 CB        -74.2909   22.7777  -77.1293 C.3       7 UNK        -0.1958 
     37 N         -74.4235   25.1752  -77.6572 N.am      7 UNK        -0.4454 
     38 C         -74.0523   26.3959  -78.0710 C.2       7 UNK         0.5089 
     39 O         -72.8872   26.7177  -78.3014 O.2       7 UNK        -0.5125 
     40 CA        -75.1585   27.4537  -78.2078 C.3       6 UNK         0.0408 
     41 CB        -75.9031   27.3067  -79.5441 C.3       6 UNK        -0.1791 
     42 N         -76.1088   27.4148  -77.0952 N.am      6 UNK        -0.4762 
     43 C         -75.8058   27.7577  -75.8341 C.2       6 UNK         0.5007 
     44 O         -74.6883   28.1369  -75.4832 O.2       6 UNK        -0.5032 
     45 CA        -76.9306   27.6067  -74.7855 C.3       5 UNK         0.0783 
     46 C46       -77.9898   28.7357  -74.9181 C.3       11 UNK        -0.0857 
     47 S47       -77.3314   30.4254  -74.6618 S.3       11 UNK        -0.2512 
     48 C48       -77.9382   30.8446  -72.9957 C.3       11 UNK         0.0225 
     49 N         -77.5587   26.2785  -74.8515 N.am      5 UNK        -0.4615 
     50 C         -76.9094   25.1049  -74.7748 C.2       4 UNK         0.5053 
     51 O         -75.7080   25.0021  -74.5361 O.2       4 UNK        -0.5105 
     52 CA        -77.7019   23.8270  -75.1044 C.3       4 UNK         0.0263 
     53 CB        -78.3952   23.2532  -73.8626 C.3       4 UNK        -0.1981 
     54 N         -78.6874   24.0160  -76.1673 N.am      4 UNK        -0.4224 
     55 C         -78.4302   24.4067  -77.4212 C.2       3 UNK         0.4895 
     56 O         -77.2921   24.5959  -77.8509 O.2       3 UNK        -0.5091 
     57 CA        -79.6371   24.6852  -78.3401 C.3       3 UNK         0.0250 
     58 CB        -80.0652   23.4119  -79.0948 C.3       3 UNK        -0.1996 
     59 N         -80.7765   25.3356  -77.6658 N.am      3 UNK        -0.4254 
     60 C         -81.5638   24.8416  -76.6988 C.2       2 UNK         0.5004 
     61 O         -81.4939   23.6854  -76.2744 O.2       2 UNK        -0.5226 
     62 CA        -82.5590   25.8167  -76.0516 C.3       2 UNK         0.0269 
     63 CB        -83.9813   25.5711  -76.5789 C.3       2 UNK        -0.1926 
     64 N         -82.5500   25.6666  -74.5944 N.am      2 UNK        -0.4687 
     65 C         -81.5145   25.9630  -73.7963 C.2       1 UNK         0.5165 
     66 O         -80.4712   26.4747  -74.2095 O.2       1 UNK        -0.5079 
     67 H67       -82.9767   21.3387  -71.5274 H         1 UNK         0.0900 
     68 H68       -82.3531   21.2527  -73.1778 H         1 UNK         0.0900 
     69 H69       -81.2626   21.6218  -71.8405 H         1 UNK         0.0900 
     70 H70       -80.7184   23.7938  -71.7828 H         1 UNK         0.2959 
     71 H71       -82.6853   25.9042  -72.0289 H         1 UNK         0.1079 
     72 H72       -81.0960   26.2315  -70.3265 H         1 UNK         0.0837 
     73 H73       -80.7398   27.4011  -71.5520 H         1 UNK         0.0837 
     74 H74       -79.0033   27.1122  -69.3401 H         1 UNK         0.0685 
     75 H75       -77.5811   26.1079  -69.4329 H         1 UNK         0.0685 
     76 H76       -79.0362   28.6671  -71.8203 H         1 UNK         0.1434 
     77 H77       -75.4930   31.0491  -71.8213 H         1 UNK         0.1329 
     78 H78       -75.6642   27.4780  -69.4535 H         1 UNK         0.1335 
     79 H79       -73.7646   28.8834  -69.2692 H         1 UNK         0.0680 
     80 H80       -73.8949   30.5524  -69.7418 H         1 UNK         0.0680 
     81 H81       -73.1414   31.5770  -71.6688 H         1 UNK         0.1032 
     82 H82       -71.6067   31.1163  -72.3282 H         1 UNK         0.1032 
     83 H83       -74.2902   30.4297  -73.6240 H         1 UNK         0.0461 
     84 H84       -73.1037   31.6083  -76.2379 H         1 UNK         0.3453 
     85 H85       -73.4369   33.3109  -76.0313 H         1 UNK         0.3453 
     86 H86       -73.2659   29.0816  -74.9368 H         1 UNK         0.2984 
     87 H87       -71.4716   28.8658  -76.9340 H         1 UNK         0.0554 
     88 H88       -69.0927   29.4444  -76.7093 H         1 UNK         0.0847 
     89 H89       -69.2486   27.7085  -76.9225 H         1 UNK         0.0847 
     90 H90       -68.9082   28.3785  -75.3271 H         1 UNK         0.0847 
     91 H91       -72.2855   26.9909  -76.1304 H         1 UNK         0.3141 
     92 H92       -71.4512   24.6511  -73.8084 H         1 UNK         0.0743 
     93 H93       -73.7627   26.5404  -73.0994 H         1 UNK         0.0784 
     94 H94       -73.6282   24.8537  -72.6022 H         1 UNK         0.0784 
     95 H95       -72.4781   26.0412  -72.0090 H         1 UNK         0.0784 
     96 H96       -73.9580   25.1713  -75.1369 H         1 UNK         0.3213 
     97 H97       -72.9273   23.9103  -78.3338 H         1 UNK         0.0855 
     98 H98       -74.8234   22.8380  -76.1810 H         1 UNK         0.0814 
     99 H99       -73.6240   21.9166  -77.0704 H         1 UNK         0.0814 
    100 H100      -75.0193   22.5727  -77.9142 H         1 UNK         0.0814 
    101 H101      -75.4162   24.9914  -77.5333 H         1 UNK         0.3105 
    102 H102      -74.6796   28.4354  -78.2003 H         1 UNK         0.0547 
    103 H103      -75.2099   27.3799  -80.3831 H         1 UNK         0.0837 
    104 H104      -76.4104   26.3455  -79.6277 H         1 UNK         0.0837 
    105 H105      -76.6479   28.0921  -79.6722 H         1 UNK         0.0837 
    106 H106      -77.0268   27.0427  -77.2909 H         1 UNK         0.3020 
    107 H107      -76.4645   27.6863  -73.8005 H         1 UNK         0.1245 
    108 H108      -78.8021   28.5668  -74.2114 H         1 UNK         0.0781 
    109 H109      -78.4577   28.7038  -75.9036 H         1 UNK         0.0781 
    110 H110      -79.0275   30.7830  -72.9759 H         1 UNK         0.0836 
    111 H111      -77.6866   31.8834  -72.7769 H         1 UNK         0.0836 
    112 H112      -78.5689   26.2648  -74.9460 H         1 UNK         0.3022 
    113 H113      -76.9869   23.0831  -75.4572 H         1 UNK         0.0747 
    114 H114      -78.7886   22.2550  -74.0546 H         1 UNK         0.0793 
    115 H115      -77.7034   23.1767  -73.0225 H         1 UNK         0.0793 
    116 H116      -79.2261   23.8831  -73.5522 H         1 UNK         0.0793 
    117 H117      -79.6631   23.8530  -75.9313 H         1 UNK         0.3047 
    118 H118      -79.2916   25.4023  -79.0867 H         1 UNK         0.0822 
    119 H119      -80.8810   23.6173  -79.7879 H         1 UNK         0.0807 
    120 H120      -80.3909   22.6217  -78.4179 H         1 UNK         0.0807 
    121 H121      -79.2358   23.0120  -79.6796 H         1 UNK         0.0807 
    122 H122      -80.9156   26.3027  -77.9260 H         1 UNK         0.2946 
    123 H123      -82.2659   26.8420  -76.2883 H         1 UNK         0.1144 
    124 H124      -84.6925   26.2747  -76.1458 H         1 UNK         0.0793 
    125 H125      -84.3265   24.5616  -76.3503 H         1 UNK         0.0793 
    126 H126      -84.0235   25.6932  -77.6621 H         1 UNK         0.0793 
    127 H127      -83.3108   25.1347  -74.1852 H         1 UNK         0.2896 
@<TRIPOS>BOND
     1    1    2 1    
     2    1   67 1    
     3    1   68 1    
     4    1   69 1    
     5    2    3 2    
     6    2    4 am   BACKBONE|DICT|INTERRES
     7    4    5 1    
     8    4   70 1    
     9    5    6 1    
    10    5   65 1    
    11    5   71 1    
    12    6    7 1    
    13    6   72 1    
    14    6   73 1    
    15    7    8 1    
    16    8    9 1    
    17    8   74 1    
    18    8   75 1    
    19    9   10 ar   
    20    9   14 ar   
    21   10   11 ar   
    22   10   76 1    
    23   11   12 ar   
    24   11   48 1    
    25   12   13 ar   
    26   12   77 1    
    27   13   14 ar   
    28   13   15 1    
    29   14   78 1    
    30   15   16 1    
    31   15   79 1    
    32   15   80 1    
    33   16   17 1    
    34   17   18 1    
    35   17   81 1    
    36   17   82 1    
    37   18   19 1    
    38   18   22 1    
    39   18   83 1    
    40   19   20 am   BACKBONE|DICT|INTERRES
    41   19   21 2    
    42   20   84 1    
    43   20   85 1    
    44   22   23 am   BACKBONE|DICT|INTERRES
    45   22   86 1    
    46   23   24 2    
    47   23   25 1    
    48   25   26 1    
    49   25   27 1    
    50   25   87 1    
    51   26   88 1    
    52   26   89 1    
    53   26   90 1    
    54   27   28 am   BACKBONE|DICT|INTERRES
    55   27   91 1    
    56   28   29 2    
    57   28   30 1    
    58   30   31 1    
    59   30   32 1    
    60   30   92 1    
    61   31   93 1    
    62   31   94 1    
    63   31   95 1    
    64   32   33 am   BACKBONE|DICT|INTERRES
    65   32   96 1    
    66   33   34 2    
    67   33   35 1    
    68   35   36 1    
    69   35   37 1    
    70   35   97 1    
    71   36   98 1    
    72   36   99 1    
    73   36  100 1    
    74   37   38 am   BACKBONE|DICT|INTERRES
    75   37  101 1    
    76   38   39 2    
    77   38   40 1    
    78   40   41 1    
    79   40   42 1    
    80   40  102 1    
    81   41  103 1    
    82   41  104 1    
    83   41  105 1    
    84   42   43 am   BACKBONE|DICT|INTERRES
    85   42  106 1    
    86   43   44 2    
    87   43   45 1    
    88   45   46 1    
    89   45   49 1    
    90   45  107 1    
    91   46   47 1    
    92   46  108 1    
    93   46  109 1    
    94   47   48 1    
    95   48  110 1    
    96   48  111 1    
    97   49   50 am   BACKBONE|DICT|INTERRES
    98   49  112 1    
    99   50   51 2    
   100   50   52 1    
   101   52   53 1    
   102   52   54 1    
   103   52  113 1    
   104   53  114 1    
   105   53  115 1    
   106   53  116 1    
   107   54   55 am   BACKBONE|DICT|INTERRES
   108   54  117 1    
   109   55   56 2    
   110   55   57 1    
   111   57   58 1    
   112   57   59 1    
   113   57  118 1    
   114   58  119 1    
   115   58  120 1    
   116   58  121 1    
   117   59   60 am   BACKBONE|DICT|INTERRES
   118   59  122 1    
   119   60   61 2    
   120   60   62 1    
   121   62   63 1    
   122   62   64 1    
   123   62  123 1    
   124   63  124 1    
   125   63  125 1    
   126   63  126 1    
   127   64   65 am   BACKBONE|DICT|INTERRES
   128   64  127 1    
   129   65   66 2    
@<TRIPOS>SUBSTRUCTURE
     1 UNK         1 GROUP             0       ****    0 ROOT    
