@<TRIPOS>MOLECULE
3R135
127   129    1
SMALL
USER_CHARGES


@<TRIPOS>ATOM
      1 CA        -81.8576   26.1568  -69.0364 C.3       0 UNK        -0.1998 
      2 C         -82.7561   26.2365  -70.2615 C.2       0 UNK         0.4909 
      3 O         -83.7346   25.4954  -70.3554 O.2       0 UNK        -0.5240 
      4 N         -82.4279   27.1299  -71.2037 N.am      1 UNK        -0.4739 
      5 CA        -83.1512   27.3332  -72.4666 C.3       1 UNK         0.0864 
      6 C6        -82.9155   28.7575  -73.0379 C.3       11 UNK        -0.0881 
      7 S7        -81.1712   29.1291  -73.4321 S.3       11 UNK        -0.2682 
      8 C8        -80.6167   30.0053  -71.9330 C.3       11 UNK         0.0289 
      9 C9        -79.1335   29.7625  -71.7068 C.ar      11 UNK        -0.0687 
     10 C10       -78.6970   28.4967  -71.3044 C.ar      11 UNK        -0.0823 
     11 C11       -77.3340   28.2195  -71.1886 C.ar      11 UNK        -0.0830 
     12 C12       -76.4050   29.2385  -71.4129 C.ar      11 UNK        -0.1021 
     13 C13       -76.8262   30.5068  -71.8191 C.ar      11 UNK        -0.0753 
     14 C14       -78.1937   30.7686  -71.9579 C.ar      11 UNK        -0.0933 
     15 C15       -75.7909   31.5615  -72.1740 C.3       11 UNK         0.0166 
     16 S16       -75.3789   31.4640  -73.9452 S.3       11 UNK        -0.2615 
     17 C17       -73.7942   32.3687  -74.0219 C.3       11 UNK        -0.0865 
     18 CA        -72.6480   31.5132  -74.6296 C.3       10 UNK         0.0862 
     19 C         -71.3638   32.3704  -74.8334 C.2       10 UNK         0.5551 
     20 N         -70.2422   32.0548  -74.1969 N.am      10 UNK        -0.7319 
     21 O         -71.3871   33.3396  -75.5880 O.2       10 UNK        -0.5018 
     22 N         -72.4420   30.2584  -73.8839 N.am      10 UNK        -0.4509 
     23 C         -71.8630   29.1553  -74.3763 C.2       10 UNK         0.4899 
     24 O         -71.4016   29.0762  -75.5167 O.2       10 UNK        -0.4839 
     25 CA        -71.7630   27.9429  -73.4331 C.3       9 UNK         0.0222 
     26 CB        -72.8330   27.9240  -72.3197 C.3       9 UNK        -0.1966 
     27 N         -71.8565   26.7053  -74.2066 N.am      9 UNK        -0.4218 
     28 C         -71.2120   25.5684  -73.9196 C.2       9 UNK         0.5020 
     29 O         -70.4093   25.4599  -72.9907 O.2       9 UNK        -0.5274 
     30 CA        -71.5213   24.3207  -74.7675 C.3       8 UNK         0.0270 
     31 CB        -72.4279   23.3550  -73.9849 C.3       8 UNK        -0.1976 
     32 N         -72.1336   24.5930  -76.0706 N.am      8 UNK        -0.4313 
     33 C         -71.4606   25.0247  -77.1468 C.2       8 UNK         0.5041 
     34 O         -70.2702   25.3392  -77.1279 O.2       8 UNK        -0.5577 
     35 CA        -72.2335   25.0910  -78.4728 C.3       7 UNK         0.0284 
     36 CB        -72.3932   23.6845  -79.0744 C.3       7 UNK        -0.1958 
     37 N         -73.5539   25.6889  -78.2846 N.am      7 UNK        -0.4454 
     38 C         -73.8713   26.9541  -78.5930 C.2       7 UNK         0.5089 
     39 O         -73.1101   27.7353  -79.1647 O.2       7 UNK        -0.5125 
     40 CA        -75.2778   27.4409  -78.1899 C.3       6 UNK         0.0408 
     41 CB        -76.2380   27.3575  -79.3862 C.3       6 UNK        -0.1791 
     42 N         -75.8430   26.7059  -77.0527 N.am      6 UNK        -0.4762 
     43 C         -75.3270   26.7386  -75.8130 C.2       6 UNK         0.5007 
     44 O         -74.3642   27.4369  -75.5070 O.2       6 UNK        -0.5032 
     45 CA        -75.9262   25.8072  -74.7395 C.3       5 UNK         0.0783 
     46 C46       -76.8374   26.6104  -73.7898 C.3       11 UNK        -0.0857 
     47 S47       -77.3323   25.6689  -72.3012 S.3       11 UNK        -0.2512 
     48 C48       -76.8602   26.7938  -70.9368 C.3       11 UNK         0.0225 
     49 N         -76.6045   24.6381  -75.3047 N.am      5 UNK        -0.4615 
     50 C         -76.0130   23.6918  -76.0467 C.2       4 UNK         0.5053 
     51 O         -74.8128   23.6999  -76.3268 O.2       4 UNK        -0.5105 
     52 CA        -76.9136   22.5826  -76.6160 C.3       4 UNK         0.0263 
     53 CB        -76.9059   21.3627  -75.6820 C.3       4 UNK        -0.1981 
     54 N         -78.2987   23.0061  -76.8527 N.am      4 UNK        -0.4224 
     55 C         -78.6773   23.9868  -77.6877 C.2       3 UNK         0.4895 
     56 O         -77.8913   24.6477  -78.3660 O.2       3 UNK        -0.5091 
     57 CA        -80.1811   24.3077  -77.7548 C.3       3 UNK         0.0250 
     58 CB        -80.8471   23.5229  -78.8963 C.3       3 UNK        -0.1996 
     59 N         -80.8931   24.0437  -76.4988 N.am      3 UNK        -0.4254 
     60 C         -80.7004   24.7288  -75.3632 C.2       2 UNK         0.5004 
     61 O         -79.8911   25.6510  -75.2491 O.2       2 UNK        -0.5226 
     62 CA        -81.4940   24.2555  -74.1368 C.3       2 UNK         0.0269 
     63 CB        -80.6575   23.2586  -73.3171 C.3       2 UNK        -0.1926 
     64 N         -81.8706   25.3761  -73.2754 N.am      2 UNK        -0.4687 
     65 C         -82.8883   26.2179  -73.5089 C.2       1 UNK         0.5165 
     66 O         -83.6305   26.1234  -74.4884 O.2       1 UNK        -0.5079 
     67 H67       -82.4388   26.3399  -68.1330 H         1 UNK         0.0900 
     68 H68       -81.0498   26.8874  -69.0725 H         1 UNK         0.0900 
     69 H69       -81.4143   25.1642  -68.9608 H         1 UNK         0.0900 
     70 H70       -81.6164   27.7148  -71.0773 H         1 UNK         0.2959 
     71 H71       -84.2177   27.2632  -72.2395 H         1 UNK         0.1079 
     72 H72       -83.5042   28.8991  -73.9463 H         1 UNK         0.0837 
     73 H73       -83.2905   29.5040  -72.3359 H         1 UNK         0.0837 
     74 H74       -81.1724   29.6659  -71.0584 H         1 UNK         0.0685 
     75 H75       -80.8295   31.0700  -72.0401 H         1 UNK         0.0685 
     76 H76       -79.4123   27.7009  -71.1548 H         1 UNK         0.1434 
     77 H77       -75.3483   29.0297  -71.3339 H         1 UNK         0.1329 
     78 H78       -78.5213   31.7417  -72.2978 H         1 UNK         0.1335 
     79 H79       -74.8922   31.4132  -71.5733 H         1 UNK         0.0680 
     80 H80       -76.1640   32.5596  -71.9393 H         1 UNK         0.0680 
     81 H81       -73.9615   33.2629  -74.6256 H         1 UNK         0.1032 
     82 H82       -73.5165   32.7278  -73.0294 H         1 UNK         0.1032 
     83 H83       -72.9659   31.2308  -75.6355 H         1 UNK         0.0461 
     84 H84       -70.2128   31.2586  -73.5811 H         1 UNK         0.3453 
     85 H85       -69.4170   32.6155  -74.3399 H         1 UNK         0.3453 
     86 H86       -72.7960   30.2419  -72.9402 H         1 UNK         0.2984 
     87 H87       -70.7779   28.0051  -72.9667 H         1 UNK         0.0554 
     88 H88       -72.7470   27.0280  -71.7046 H         1 UNK         0.0847 
     89 H89       -73.8388   27.9382  -72.7409 H         1 UNK         0.0847 
     90 H90       -72.7335   28.7750  -71.6455 H         1 UNK         0.0847 
     91 H91       -72.4824   26.7499  -75.0046 H         1 UNK         0.3141 
     92 H92       -70.5703   23.8128  -74.9428 H         1 UNK         0.0743 
     93 H93       -71.9739   23.0769  -73.0327 H         1 UNK         0.0784 
     94 H94       -72.6005   22.4333  -74.5411 H         1 UNK         0.0784 
     95 H95       -73.3987   23.7982  -73.7642 H         1 UNK         0.0784 
     96 H96       -73.1050   24.3071  -76.1798 H         1 UNK         0.3213 
     97 H97       -71.6437   25.6885  -79.1717 H         1 UNK         0.0855 
     98 H98       -72.9817   23.0290  -78.4310 H         1 UNK         0.0814 
     99 H99       -71.4215   23.2111  -79.2218 H         1 UNK         0.0814 
    100 H100      -72.8839   23.7252  -80.0470 H         1 UNK         0.0814 
    101 H101      -74.2435   25.1264  -77.8007 H         1 UNK         0.3105 
    102 H102      -75.1913   28.4895  -77.8969 H         1 UNK         0.0547 
    103 H103      -77.2334   27.7173  -79.1258 H         1 UNK         0.0837 
    104 H104      -75.8790   27.9680  -80.2158 H         1 UNK         0.0837 
    105 H105      -76.3354   26.3358  -79.7549 H         1 UNK         0.0837 
    106 H106      -76.6198   26.0849  -77.2505 H         1 UNK         0.3020 
    107 H107      -75.0813   25.4385  -74.1549 H         1 UNK         0.1245 
    108 H108      -77.7404   26.9438  -74.3043 H         1 UNK         0.0781 
    109 H109      -76.3188   27.5190  -73.4859 H         1 UNK         0.0781 
    110 H110      -77.2891   26.4265  -70.0035 H         1 UNK         0.0836 
    111 H111      -75.7766   26.7605  -70.8133 H         1 UNK         0.0836 
    112 H112      -77.6003   24.5840  -75.1396 H         1 UNK         0.3022 
    113 H113      -76.4906   22.2840  -77.5774 H         1 UNK         0.0747 
    114 H114      -77.4610   20.5288  -76.1121 H         1 UNK         0.0793 
    115 H115      -75.8873   21.0137  -75.5052 H         1 UNK         0.0793 
    116 H116      -77.3440   21.5944  -74.7102 H         1 UNK         0.0793 
    117 H117      -79.0171   22.5157  -76.3410 H         1 UNK         0.3047 
    118 H118      -80.2746   25.3738  -77.9739 H         1 UNK         0.0822 
    119 H119      -81.8931   23.8060  -79.0155 H         1 UNK         0.0807 
    120 H120      -80.8064   22.4462  -78.7265 H         1 UNK         0.0807 
    121 H121      -80.3501   23.7215  -79.8471 H         1 UNK         0.0807 
    122 H122      -81.5701   23.2938  -76.5119 H         1 UNK         0.2946 
    123 H123      -82.4053   23.7555  -74.4735 H         1 UNK         0.1144 
    124 H124      -81.2099   22.8968  -72.4496 H         1 UNK         0.0793 
    125 H125      -79.7298   23.7080  -72.9596 H         1 UNK         0.0793 
    126 H126      -80.3881   22.3864  -73.9139 H         1 UNK         0.0793 
    127 H127      -81.2830   25.5523  -72.4747 H         1 UNK         0.2896 
@<TRIPOS>BOND
     1    1    2 1    
     2    1   67 1    
     3    1   68 1    
     4    1   69 1    
     5    2    3 2    
     6    2    4 am   BACKBONE|DICT|INTERRES
     7    4    5 1    
     8    4   70 1    
     9    5    6 1    
    10    5   65 1    
    11    5   71 1    
    12    6    7 1    
    13    6   72 1    
    14    6   73 1    
    15    7    8 1    
    16    8    9 1    
    17    8   74 1    
    18    8   75 1    
    19    9   10 ar   
    20    9   14 ar   
    21   10   11 ar   
    22   10   76 1    
    23   11   12 ar   
    24   11   48 1    
    25   12   13 ar   
    26   12   77 1    
    27   13   14 ar   
    28   13   15 1    
    29   14   78 1    
    30   15   16 1    
    31   15   79 1    
    32   15   80 1    
    33   16   17 1    
    34   17   18 1    
    35   17   81 1    
    36   17   82 1    
    37   18   19 1    
    38   18   22 1    
    39   18   83 1    
    40   19   20 am   BACKBONE|DICT|INTERRES
    41   19   21 2    
    42   20   84 1    
    43   20   85 1    
    44   22   23 am   BACKBONE|DICT|INTERRES
    45   22   86 1    
    46   23   24 2    
    47   23   25 1    
    48   25   26 1    
    49   25   27 1    
    50   25   87 1    
    51   26   88 1    
    52   26   89 1    
    53   26   90 1    
    54   27   28 am   BACKBONE|DICT|INTERRES
    55   27   91 1    
    56   28   29 2    
    57   28   30 1    
    58   30   31 1    
    59   30   32 1    
    60   30   92 1    
    61   31   93 1    
    62   31   94 1    
    63   31   95 1    
    64   32   33 am   BACKBONE|DICT|INTERRES
    65   32   96 1    
    66   33   34 2    
    67   33   35 1    
    68   35   36 1    
    69   35   37 1    
    70   35   97 1    
    71   36   98 1    
    72   36   99 1    
    73   36  100 1    
    74   37   38 am   BACKBONE|DICT|INTERRES
    75   37  101 1    
    76   38   39 2    
    77   38   40 1    
    78   40   41 1    
    79   40   42 1    
    80   40  102 1    
    81   41  103 1    
    82   41  104 1    
    83   41  105 1    
    84   42   43 am   BACKBONE|DICT|INTERRES
    85   42  106 1    
    86   43   44 2    
    87   43   45 1    
    88   45   46 1    
    89   45   49 1    
    90   45  107 1    
    91   46   47 1    
    92   46  108 1    
    93   46  109 1    
    94   47   48 1    
    95   48  110 1    
    96   48  111 1    
    97   49   50 am   BACKBONE|DICT|INTERRES
    98   49  112 1    
    99   50   51 2    
   100   50   52 1    
   101   52   53 1    
   102   52   54 1    
   103   52  113 1    
   104   53  114 1    
   105   53  115 1    
   106   53  116 1    
   107   54   55 am   BACKBONE|DICT|INTERRES
   108   54  117 1    
   109   55   56 2    
   110   55   57 1    
   111   57   58 1    
   112   57   59 1    
   113   57  118 1    
   114   58  119 1    
   115   58  120 1    
   116   58  121 1    
   117   59   60 am   BACKBONE|DICT|INTERRES
   118   59  122 1    
   119   60   61 2    
   120   60   62 1    
   121   62   63 1    
   122   62   64 1    
   123   62  123 1    
   124   63  124 1    
   125   63  125 1    
   126   63  126 1    
   127   64   65 am   BACKBONE|DICT|INTERRES
   128   64  127 1    
   129   65   66 2    
@<TRIPOS>SUBSTRUCTURE
     1 UNK         1 GROUP             0       ****    0 ROOT    
