@<TRIPOS>MOLECULE
3R135
127   129    1
SMALL
USER_CHARGES


@<TRIPOS>ATOM
      1 CA        -84.5229   24.3166  -73.6864 C.3       0 UNK        -0.1998 
      2 C         -83.5658   25.3066  -73.0390 C.2       0 UNK         0.4909 
      3 O         -82.9546   24.9766  -72.0228 O.2       0 UNK        -0.5240 
      4 N         -83.4523   26.5098  -73.6229 N.am      1 UNK        -0.4739 
      5 CA        -82.5354   27.6041  -73.2689 C.3       1 UNK         0.0864 
      6 C6        -82.5838   27.9970  -71.7676 C.3       11 UNK        -0.0881 
      7 S7        -81.9942   29.6955  -71.4457 S.3       11 UNK        -0.2682 
      8 C8        -80.7446   29.4259  -70.1461 C.3       11 UNK         0.0289 
      9 C9        -79.4071   28.9752  -70.7165 C.ar      11 UNK        -0.0687 
     10 C10       -79.1199   27.6148  -70.8636 C.ar      11 UNK        -0.0823 
     11 C11       -77.8958   27.1886  -71.3890 C.ar      11 UNK        -0.0830 
     12 C12       -76.9390   28.1528  -71.7323 C.ar      11 UNK        -0.1021 
     13 C13       -77.2195   29.5159  -71.6125 C.ar      11 UNK        -0.0753 
     14 C14       -78.4534   29.9227  -71.0988 C.ar      11 UNK        -0.0933 
     15 C15       -76.2038   30.5393  -72.0942 C.3       11 UNK         0.0166 
     16 S16       -74.7198   30.5640  -71.0450 S.3       11 UNK        -0.2615 
     17 C17       -73.6445   31.6755  -72.0182 C.3       11 UNK        -0.0865 
     18 CA        -72.4841   30.9478  -72.7557 C.3       10 UNK         0.0862 
     19 C         -71.3640   30.4265  -71.8089 C.2       10 UNK         0.5551 
     20 N         -70.7678   29.2669  -72.0622 N.am      10 UNK        -0.7319 
     21 O         -71.0067   31.0944  -70.8415 O.2       10 UNK        -0.5018 
     22 N         -72.9580   29.9450  -73.7253 N.am      10 UNK        -0.4509 
     23 C         -73.4121   30.2193  -74.9534 C.2       10 UNK         0.4899 
     24 O         -73.5398   31.3629  -75.3947 O.2       10 UNK        -0.4839 
     25 CA        -73.7706   29.0032  -75.8342 C.3       9 UNK         0.0222 
     26 CB        -74.1611   29.3960  -77.2737 C.3       9 UNK        -0.1966 
     27 N         -72.7267   27.9681  -75.8581 N.am      9 UNK        -0.4218 
     28 C         -71.4263   28.1130  -76.1644 C.2       9 UNK         0.5020 
     29 O         -70.9027   29.1834  -76.4742 O.2       9 UNK        -0.5274 
     30 CA        -70.5528   26.8499  -76.1169 C.3       8 UNK         0.0270 
     31 CB        -70.2110   26.4741  -74.6649 C.3       8 UNK        -0.1976 
     32 N         -71.2022   25.7139  -76.7753 N.am      8 UNK        -0.4313 
     33 C         -70.6560   24.9698  -77.7474 C.2       8 UNK         0.5041 
     34 O         -69.5206   25.1484  -78.1916 O.2       8 UNK        -0.5577 
     35 CA        -71.5036   23.8180  -78.3278 C.3       7 UNK         0.0284 
     36 CB        -71.0845   22.4777  -77.7017 C.3       7 UNK        -0.1958 
     37 N         -72.9470   23.9972  -78.1509 N.am      7 UNK        -0.4454 
     38 C         -73.6766   24.9516  -78.7429 C.2       7 UNK         0.5089 
     39 O         -73.2286   25.7217  -79.5927 O.2       7 UNK        -0.5125 
     40 CA        -75.1472   25.0968  -78.3056 C.3       6 UNK         0.0408 
     41 CB        -76.0719   24.4750  -79.3639 C.3       6 UNK        -0.1791 
     42 N         -75.5077   24.5716  -76.9774 N.am      6 UNK        -0.4762 
     43 C         -74.9138   24.8636  -75.8068 C.2       6 UNK         0.5007 
     44 O         -73.8334   25.4510  -75.7303 O.2       6 UNK        -0.5032 
     45 CA        -75.6371   24.4686  -74.5003 C.3       5 UNK         0.0783 
     46 C46       -75.4920   25.5961  -73.4451 C.3       11 UNK        -0.0857 
     47 S47       -75.9789   25.0943  -71.7590 S.3       11 UNK        -0.2512 
     48 C48       -77.7009   25.6900  -71.6351 C.3       11 UNK         0.0225 
     49 N         -77.0501   24.1951  -74.7693 N.am      5 UNK        -0.4615 
     50 C         -77.6848   23.0323  -74.5805 C.2       4 UNK         0.5053 
     51 O         -77.1302   22.0120  -74.1724 O.2       4 UNK        -0.5105 
     52 CA        -79.1942   22.9908  -74.8977 C.3       4 UNK         0.0263 
     53 CB        -80.0205   22.8566  -73.6075 C.3       4 UNK        -0.1981 
     54 N         -79.6585   24.1639  -75.6471 N.am      4 UNK        -0.4224 
     55 C         -79.4440   24.3466  -76.9597 C.2       3 UNK         0.4895 
     56 O         -78.9061   23.5046  -77.6781 O.2       3 UNK        -0.5091 
     57 CA        -79.8535   25.6987  -77.5782 C.3       3 UNK         0.0250 
     58 CB        -81.2378   25.5862  -78.2362 C.3       3 UNK        -0.1996 
     59 N         -79.8618   26.8164  -76.6301 N.am      3 UNK        -0.4254 
     60 C         -78.8070   27.2475  -75.9230 C.2       2 UNK         0.5004 
     61 O         -77.6703   26.7967  -76.0517 O.2       2 UNK        -0.5226 
     62 CA        -79.0703   28.3056  -74.8370 C.3       2 UNK         0.0269 
     63 CB        -78.6516   29.7023  -75.3206 C.3       2 UNK        -0.1926 
     64 N         -80.4495   28.3497  -74.3293 N.am      2 UNK        -0.4687 
     65 C         -81.1037   27.3185  -73.7720 C.2       1 UNK         0.5165 
     66 O         -80.6217   26.1868  -73.6847 O.2       1 UNK        -0.5079 
     67 H67       -83.9824   23.4216  -73.9936 H         1 UNK         0.0900 
     68 H68       -85.2947   24.0216  -72.9760 H         1 UNK         0.0900 
     69 H69       -85.0132   24.7346  -74.5654 H         1 UNK         0.0900 
     70 H70       -84.0004   26.6831  -74.4544 H         1 UNK         0.2959 
     71 H71       -82.9101   28.4562  -73.8391 H         1 UNK         0.1079 
     72 H72       -82.0379   27.2779  -71.1571 H         1 UNK         0.0837 
     73 H73       -83.6147   27.9540  -71.4129 H         1 UNK         0.0837 
     74 H74       -80.6096   30.3595  -69.5978 H         1 UNK         0.0685 
     75 H75       -81.1149   28.7031  -69.4173 H         1 UNK         0.0685 
     76 H76       -79.8639   26.8794  -70.5911 H         1 UNK         0.1434 
     77 H77       -75.9746   27.8672  -72.1208 H         1 UNK         0.1329 
     78 H78       -78.6779   30.9765  -71.0053 H         1 UNK         0.1335 
     79 H79       -76.6416   31.5385  -72.1189 H         1 UNK         0.0680 
     80 H80       -75.9213   30.2992  -73.1201 H         1 UNK         0.0680 
     81 H81       -74.2479   32.2241  -72.7429 H         1 UNK         0.1032 
     82 H82       -73.2486   32.4406  -71.3480 H         1 UNK         0.1032 
     83 H83       -71.9653   31.7139  -73.3352 H         1 UNK         0.0461 
     84 H84       -70.0406   28.9504  -71.4400 H         1 UNK         0.3453 
     85 H85       -70.9870   28.7367  -72.8869 H         1 UNK         0.3453 
     86 H86       -72.9142   28.9851  -73.4177 H         1 UNK         0.2984 
     87 H87       -74.6463   28.5418  -75.3743 H         1 UNK         0.0554 
     88 H88       -75.0053   30.0867  -77.2765 H         1 UNK         0.0847 
     89 H89       -74.4564   28.5231  -77.8557 H         1 UNK         0.0847 
     90 H90       -73.3371   29.8836  -77.7958 H         1 UNK         0.0847 
     91 H91       -73.0634   27.0296  -75.6490 H         1 UNK         0.3141 
     92 H92       -69.6188   27.0942  -76.6276 H         1 UNK         0.0743 
     93 H93       -69.7060   27.2965  -74.1571 H         1 UNK         0.0784 
     94 H94       -71.1020   26.2224  -74.0880 H         1 UNK         0.0784 
     95 H95       -69.5399   25.6156  -74.6302 H         1 UNK         0.0784 
     96 H96       -72.1543   25.5014  -76.4855 H         1 UNK         0.3213 
     97 H97       -71.3000   23.7740  -79.4000 H         1 UNK         0.0855 
     98 H98       -71.2776   22.4553  -76.6283 H         1 UNK         0.0814 
     99 H99       -70.0179   22.2976  -77.8440 H         1 UNK         0.0814 
    100 H100      -71.6153   21.6419  -78.1580 H         1 UNK         0.0814 
    101 H101      -73.4033   23.4134  -77.4651 H         1 UNK         0.3105 
    102 H102      -75.3521   26.1686  -78.2750 H         1 UNK         0.0547 
    103 H103      -77.1100   24.7581  -79.1980 H         1 UNK         0.0837 
    104 H104      -75.8100   24.8138  -80.3674 H         1 UNK         0.0837 
    105 H105      -76.0140   23.3860  -79.3615 H         1 UNK         0.0837 
    106 H106      -76.3834   24.0691  -76.9323 H         1 UNK         0.3020 
    107 H107      -75.1345   23.5723  -74.1306 H         1 UNK         0.1245 
    108 H108      -76.0649   26.4662  -73.7671 H         1 UNK         0.0781 
    109 H109      -74.4566   25.9308  -73.3593 H         1 UNK         0.0781 
    110 H110      -78.1780   25.1319  -70.8281 H         1 UNK         0.0836 
    111 H111      -78.2357   25.4216  -72.5455 H         1 UNK         0.0836 
    112 H112      -77.5638   24.9826  -75.1514 H         1 UNK         0.3022 
    113 H113      -79.3722   22.0993  -75.5030 H         1 UNK         0.0747 
    114 H114      -81.0860   22.7793  -73.8246 H         1 UNK         0.0793 
    115 H115      -79.7372   21.9612  -73.0527 H         1 UNK         0.0793 
    116 H116      -79.8796   23.7086  -72.9424 H         1 UNK         0.0793 
    117 H117      -80.0867   24.9070  -75.1005 H         1 UNK         0.3047 
    118 H118      -79.1221   25.9359  -78.3533 H         1 UNK         0.0822 
    119 H119      -81.2563   24.7795  -78.9707 H         1 UNK         0.0807 
    120 H120      -81.5051   26.5039  -78.7606 H         1 UNK         0.0807 
    121 H121      -82.0179   25.3770  -77.5030 H         1 UNK         0.0807 
    122 H122      -80.7549   27.2503  -76.4494 H         1 UNK         0.2946 
    123 H123      -78.4321   28.0363  -73.9967 H         1 UNK         0.1144 
    124 H124      -78.7080   30.4328  -74.5132 H         1 UNK         0.0793 
    125 H125      -79.2814   30.0522  -76.1393 H         1 UNK         0.0793 
    126 H126      -77.6206   29.6989  -75.6782 H         1 UNK         0.0793 
    127 H127      -80.9025   29.2524  -74.3515 H         1 UNK         0.2896 
@<TRIPOS>BOND
     1    1    2 1    
     2    1   67 1    
     3    1   68 1    
     4    1   69 1    
     5    2    3 2    
     6    2    4 am   BACKBONE|DICT|INTERRES
     7    4    5 1    
     8    4   70 1    
     9    5    6 1    
    10    5   65 1    
    11    5   71 1    
    12    6    7 1    
    13    6   72 1    
    14    6   73 1    
    15    7    8 1    
    16    8    9 1    
    17    8   74 1    
    18    8   75 1    
    19    9   10 ar   
    20    9   14 ar   
    21   10   11 ar   
    22   10   76 1    
    23   11   12 ar   
    24   11   48 1    
    25   12   13 ar   
    26   12   77 1    
    27   13   14 ar   
    28   13   15 1    
    29   14   78 1    
    30   15   16 1    
    31   15   79 1    
    32   15   80 1    
    33   16   17 1    
    34   17   18 1    
    35   17   81 1    
    36   17   82 1    
    37   18   19 1    
    38   18   22 1    
    39   18   83 1    
    40   19   20 am   BACKBONE|DICT|INTERRES
    41   19   21 2    
    42   20   84 1    
    43   20   85 1    
    44   22   23 am   BACKBONE|DICT|INTERRES
    45   22   86 1    
    46   23   24 2    
    47   23   25 1    
    48   25   26 1    
    49   25   27 1    
    50   25   87 1    
    51   26   88 1    
    52   26   89 1    
    53   26   90 1    
    54   27   28 am   BACKBONE|DICT|INTERRES
    55   27   91 1    
    56   28   29 2    
    57   28   30 1    
    58   30   31 1    
    59   30   32 1    
    60   30   92 1    
    61   31   93 1    
    62   31   94 1    
    63   31   95 1    
    64   32   33 am   BACKBONE|DICT|INTERRES
    65   32   96 1    
    66   33   34 2    
    67   33   35 1    
    68   35   36 1    
    69   35   37 1    
    70   35   97 1    
    71   36   98 1    
    72   36   99 1    
    73   36  100 1    
    74   37   38 am   BACKBONE|DICT|INTERRES
    75   37  101 1    
    76   38   39 2    
    77   38   40 1    
    78   40   41 1    
    79   40   42 1    
    80   40  102 1    
    81   41  103 1    
    82   41  104 1    
    83   41  105 1    
    84   42   43 am   BACKBONE|DICT|INTERRES
    85   42  106 1    
    86   43   44 2    
    87   43   45 1    
    88   45   46 1    
    89   45   49 1    
    90   45  107 1    
    91   46   47 1    
    92   46  108 1    
    93   46  109 1    
    94   47   48 1    
    95   48  110 1    
    96   48  111 1    
    97   49   50 am   BACKBONE|DICT|INTERRES
    98   49  112 1    
    99   50   51 2    
   100   50   52 1    
   101   52   53 1    
   102   52   54 1    
   103   52  113 1    
   104   53  114 1    
   105   53  115 1    
   106   53  116 1    
   107   54   55 am   BACKBONE|DICT|INTERRES
   108   54  117 1    
   109   55   56 2    
   110   55   57 1    
   111   57   58 1    
   112   57   59 1    
   113   57  118 1    
   114   58  119 1    
   115   58  120 1    
   116   58  121 1    
   117   59   60 am   BACKBONE|DICT|INTERRES
   118   59  122 1    
   119   60   61 2    
   120   60   62 1    
   121   62   63 1    
   122   62   64 1    
   123   62  123 1    
   124   63  124 1    
   125   63  125 1    
   126   63  126 1    
   127   64   65 am   BACKBONE|DICT|INTERRES
   128   64  127 1    
   129   65   66 2    
@<TRIPOS>SUBSTRUCTURE
     1 UNK         1 GROUP             0       ****    0 ROOT    
