@<TRIPOS>MOLECULE
3R135
127   129    1
SMALL
USER_CHARGES


@<TRIPOS>ATOM
      1 CA        -84.6072   26.9700  -70.1512 C.3       0 UNK        -0.1998 
      2 C         -84.5594   26.9421  -71.6714 C.2       0 UNK         0.4909 
      3 O         -85.2834   26.1642  -72.2934 O.2       0 UNK        -0.5240 
      4 N         -83.7124   27.7864  -72.2744 N.am      1 UNK        -0.4739 
      5 CA        -83.5048   27.8833  -73.7260 C.3       1 UNK         0.0864 
      6 C6        -82.8516   29.2319  -74.1320 C.3       11 UNK        -0.0881 
      7 S7        -81.3750   29.6786  -73.1521 S.3       11 UNK        -0.2682 
      8 C8        -80.0494   29.2167  -74.3068 C.3       11 UNK         0.0289 
      9 C9        -78.7078   29.0777  -73.6045 C.ar      11 UNK        -0.0687 
     10 C10       -78.5464   28.1137  -72.6074 C.ar      11 UNK        -0.0823 
     11 C11       -77.3024   27.9092  -72.0081 C.ar      11 UNK        -0.0830 
     12 C12       -76.2053   28.6710  -72.4200 C.ar      11 UNK        -0.1021 
     13 C13       -76.3478   29.6234  -73.4338 C.ar      11 UNK        -0.0753 
     14 C14       -77.6083   29.8446  -74.0015 C.ar      11 UNK        -0.0933 
     15 C15       -75.1196   30.3075  -74.0157 C.3       11 UNK         0.0166 
     16 S16       -74.3376   31.4890  -72.8803 S.3       11 UNK        -0.2615 
     17 C17       -72.9461   32.0257  -73.9422 C.3       11 UNK        -0.0865 
     18 CA        -71.5403   31.5713  -73.4538 C.3       10 UNK         0.0862 
     19 C         -70.9866   32.4084  -72.2632 C.2       10 UNK         0.5551 
     20 N         -70.2256   31.8276  -71.3415 N.am      10 UNK        -0.7319 
     21 O         -71.2246   33.6111  -72.1806 O.2       10 UNK        -0.5018 
     22 N         -71.4334   30.1183  -73.2426 N.am      10 UNK        -0.4509 
     23 C         -71.3265   29.1819  -74.1920 C.2       10 UNK         0.4899 
     24 O         -71.3542   29.4242  -75.4001 O.2       10 UNK        -0.4839 
     25 CA        -71.1042   27.7416  -73.6931 C.3       9 UNK         0.0222 
     26 CB        -71.8905   27.4280  -72.4014 C.3       9 UNK        -0.1966 
     27 N         -71.4662   26.7547  -74.7161 N.am      9 UNK        -0.4218 
     28 C         -70.6128   25.8980  -75.2921 C.2       9 UNK         0.5020 
     29 O         -69.3946   25.9225  -75.1052 O.2       9 UNK        -0.5274 
     30 CA        -71.1861   24.7788  -76.1818 C.3       8 UNK         0.0270 
     31 CB        -71.3892   23.4980  -75.3548 C.3       8 UNK        -0.1976 
     32 N         -72.4323   25.0995  -76.8850 N.am      8 UNK        -0.4313 
     33 C         -72.4810   25.8113  -78.0202 C.2       8 UNK         0.5041 
     34 O         -71.5107   26.3957  -78.5042 O.2       8 UNK        -0.5577 
     35 CA        -73.8231   25.8377  -78.7719 C.3       7 UNK         0.0284 
     36 CB        -74.0854   24.4970  -79.4780 C.3       7 UNK        -0.1958 
     37 N         -74.9400   26.1487  -77.8844 N.am      7 UNK        -0.4454 
     38 C         -75.2556   27.3877  -77.4856 C.2       7 UNK         0.5089 
     39 O         -74.7157   28.4079  -77.9146 O.2       7 UNK        -0.5125 
     40 CA        -76.3414   27.5107  -76.4025 C.3       6 UNK         0.0408 
     41 CB        -77.7315   27.6207  -77.0432 C.3       6 UNK        -0.1791 
     42 N         -76.3044   26.4204  -75.4166 N.am      6 UNK        -0.4762 
     43 C         -75.2416   26.1766  -74.6305 C.2       6 UNK         0.5007 
     44 O         -74.2466   26.8968  -74.6116 O.2       6 UNK        -0.5032 
     45 CA        -75.1994   24.8743  -73.8088 C.3       5 UNK         0.0783 
     46 C46       -75.3808   25.0723  -72.2834 C.3       11 UNK        -0.0857 
     47 S47       -77.1054   25.1741  -71.7056 S.3       11 UNK        -0.2512 
     48 C48       -77.1521   26.8300  -70.9508 C.3       11 UNK         0.0225 
     49 N         -76.0380   23.8203  -74.3814 N.am      5 UNK        -0.4615 
     50 C         -75.7090   23.1501  -75.4929 C.2       4 UNK         0.5053 
     51 O         -74.6650   23.3415  -76.1191 O.2       4 UNK        -0.5105 
     52 CA        -76.7386   22.1389  -76.0165 C.3       4 UNK         0.0263 
     53 CB        -76.8985   20.9532  -75.0503 C.3       4 UNK        -0.1981 
     54 N         -78.0432   22.7547  -76.2709 N.am      4 UNK        -0.4224 
     55 C         -78.2664   23.7207  -77.1741 C.2       3 UNK         0.4895 
     56 O         -77.3899   24.2017  -77.8929 O.2       3 UNK        -0.5091 
     57 CA        -79.7093   24.2387  -77.3095 C.3       3 UNK         0.0250 
     58 CB        -80.4380   23.4918  -78.4381 C.3       3 UNK        -0.1996 
     59 N         -80.5081   24.1577  -76.0825 N.am      3 UNK        -0.4254 
     60 C         -80.2680   24.8502  -74.9602 C.2       2 UNK         0.5004 
     61 O         -79.2815   25.5685  -74.7936 O.2       2 UNK        -0.5226 
     62 CA        -81.3014   24.6950  -73.8295 C.3       2 UNK         0.0269 
     63 CB        -80.6489   24.1278  -72.5593 C.3       2 UNK        -0.1926 
     64 N         -81.9837   25.9489  -73.4957 N.am      2 UNK        -0.4687 
     65 C         -82.7667   26.6608  -74.3216 C.2       1 UNK         0.5165 
     66 O         -82.9574   26.3656  -75.5023 O.2       1 UNK        -0.5079 
     67 H67       -85.6133   27.2152  -69.8120 H         1 UNK         0.0900 
     68 H68       -83.9202   27.7069  -69.7352 H         1 UNK         0.0900 
     69 H69       -84.3404   25.9928  -69.7495 H         1 UNK         0.0900 
     70 H70       -83.1421   28.4104  -71.7197 H         1 UNK         0.2959 
     71 H71       -84.4956   27.8670  -74.1865 H         1 UNK         0.1079 
     72 H72       -82.6170   29.2516  -75.1985 H         1 UNK         0.0837 
     73 H73       -83.5800   30.0313  -73.9874 H         1 UNK         0.0837 
     74 H74       -80.0003   29.9545  -75.1090 H         1 UNK         0.0685 
     75 H75       -80.2905   28.2617  -74.7748 H         1 UNK         0.0685 
     76 H76       -79.3872   27.4972  -72.3207 H         1 UNK         0.1434 
     77 H77       -75.2292   28.4899  -71.9926 H         1 UNK         0.1329 
     78 H78       -77.7186   30.5639  -74.8012 H         1 UNK         0.1335 
     79 H79       -75.3780   30.8252  -74.9409 H         1 UNK         0.0680 
     80 H80       -74.3895   29.5450  -74.2894 H         1 UNK         0.0680 
     81 H81       -73.0986   31.6539  -74.9563 H         1 UNK         0.1032 
     82 H82       -72.9893   33.1118  -74.0408 H         1 UNK         0.1032 
     83 H83       -70.8457   31.8113  -74.2610 H         1 UNK         0.0461 
     84 H84       -69.8718   32.3887  -70.5822 H         1 UNK         0.3453 
     85 H85       -69.9405   30.8658  -71.4232 H         1 UNK         0.3453 
     86 H86       -71.4408   29.8299  -72.2756 H         1 UNK         0.2984 
     87 H87       -70.0417   27.6629  -73.4560 H         1 UNK         0.0554 
     88 H88       -71.8382   26.3678  -72.1530 H         1 UNK         0.0847 
     89 H89       -72.9434   27.6951  -72.4922 H         1 UNK         0.0847 
     90 H90       -71.4872   27.9692  -71.5452 H         1 UNK         0.0847 
     91 H91       -72.4572   26.7213  -74.9483 H         1 UNK         0.3141 
     92 H92       -70.4275   24.5566  -76.9359 H         1 UNK         0.0743 
     93 H93       -72.1212   23.6388  -74.5605 H         1 UNK         0.0784 
     94 H94       -71.7275   22.6706  -75.9792 H         1 UNK         0.0784 
     95 H95       -70.4561   23.1862  -74.8835 H         1 UNK         0.0784 
     96 H96       -73.2689   24.6050  -76.5851 H         1 UNK         0.3213 
     97 H97       -73.7593   26.6105  -79.5415 H         1 UNK         0.0855 
     98 H98       -74.1808   23.6731  -78.7701 H         1 UNK         0.0814 
     99 H99       -73.2706   24.2495  -80.1597 H         1 UNK         0.0814 
    100 H100      -75.0020   24.5345  -80.0672 H         1 UNK         0.0814 
    101 H101      -75.4750   25.3695  -77.5184 H         1 UNK         0.3105 
    102 H102      -76.1480   28.4385  -75.8692 H         1 UNK         0.0547 
    103 H103      -77.8141   28.5389  -77.6256 H         1 UNK         0.0837 
    104 H104      -77.9277   26.7934  -77.7223 H         1 UNK         0.0837 
    105 H105      -78.5195   27.6411  -76.2927 H         1 UNK         0.0837 
    106 H106      -77.1274   25.8341  -75.3384 H         1 UNK         0.3020 
    107 H107      -74.1675   24.5347  -73.9160 H         1 UNK         0.1245 
    108 H108      -74.8142   25.9390  -71.9389 H         1 UNK         0.0781 
    109 H109      -74.9345   24.2215  -71.7665 H         1 UNK         0.0781 
    110 H110      -77.9993   26.8784  -70.2650 H         1 UNK         0.0836 
    111 H111      -76.2612   26.9936  -70.3426 H         1 UNK         0.0836 
    112 H112      -76.9261   23.6549  -73.9299 H         1 UNK         0.3022 
    113 H113      -76.3631   21.7524  -76.9666 H         1 UNK         0.0747 
    114 H114      -77.5421   20.1823  -75.4744 H         1 UNK         0.0793 
    115 H115      -75.9339   20.4876  -74.8424 H         1 UNK         0.0793 
    116 H116      -77.3266   21.2572  -74.0943 H         1 UNK         0.0793 
    117 H117      -78.8252   22.4197  -75.7279 H         1 UNK         0.3047 
    118 H118      -79.6545   25.2919  -77.5881 H         1 UNK         0.0822 
    119 H119      -81.4264   23.9142  -78.6209 H         1 UNK         0.0807 
    120 H120      -80.5608   22.4323  -78.2095 H         1 UNK         0.0807 
    121 H121      -79.8816   23.5606  -79.3742 H         1 UNK         0.0807 
    122 H122      -81.3465   23.5969  -76.1341 H         1 UNK         0.2946 
    123 H123      -82.0664   23.9866  -74.1547 H         1 UNK         0.1144 
    124 H124      -81.3977   23.8677  -71.8110 H         1 UNK         0.0793 
    125 H125      -79.9639   24.8458  -72.1095 H         1 UNK         0.0793 
    126 H126      -80.0793   23.2231  -72.7763 H         1 UNK         0.0793 
    127 H127      -81.8829   26.2804  -72.5481 H         1 UNK         0.2896 
@<TRIPOS>BOND
     1    1    2 1    
     2    1   67 1    
     3    1   68 1    
     4    1   69 1    
     5    2    3 2    
     6    2    4 am   BACKBONE|DICT|INTERRES
     7    4    5 1    
     8    4   70 1    
     9    5    6 1    
    10    5   65 1    
    11    5   71 1    
    12    6    7 1    
    13    6   72 1    
    14    6   73 1    
    15    7    8 1    
    16    8    9 1    
    17    8   74 1    
    18    8   75 1    
    19    9   10 ar   
    20    9   14 ar   
    21   10   11 ar   
    22   10   76 1    
    23   11   12 ar   
    24   11   48 1    
    25   12   13 ar   
    26   12   77 1    
    27   13   14 ar   
    28   13   15 1    
    29   14   78 1    
    30   15   16 1    
    31   15   79 1    
    32   15   80 1    
    33   16   17 1    
    34   17   18 1    
    35   17   81 1    
    36   17   82 1    
    37   18   19 1    
    38   18   22 1    
    39   18   83 1    
    40   19   20 am   BACKBONE|DICT|INTERRES
    41   19   21 2    
    42   20   84 1    
    43   20   85 1    
    44   22   23 am   BACKBONE|DICT|INTERRES
    45   22   86 1    
    46   23   24 2    
    47   23   25 1    
    48   25   26 1    
    49   25   27 1    
    50   25   87 1    
    51   26   88 1    
    52   26   89 1    
    53   26   90 1    
    54   27   28 am   BACKBONE|DICT|INTERRES
    55   27   91 1    
    56   28   29 2    
    57   28   30 1    
    58   30   31 1    
    59   30   32 1    
    60   30   92 1    
    61   31   93 1    
    62   31   94 1    
    63   31   95 1    
    64   32   33 am   BACKBONE|DICT|INTERRES
    65   32   96 1    
    66   33   34 2    
    67   33   35 1    
    68   35   36 1    
    69   35   37 1    
    70   35   97 1    
    71   36   98 1    
    72   36   99 1    
    73   36  100 1    
    74   37   38 am   BACKBONE|DICT|INTERRES
    75   37  101 1    
    76   38   39 2    
    77   38   40 1    
    78   40   41 1    
    79   40   42 1    
    80   40  102 1    
    81   41  103 1    
    82   41  104 1    
    83   41  105 1    
    84   42   43 am   BACKBONE|DICT|INTERRES
    85   42  106 1    
    86   43   44 2    
    87   43   45 1    
    88   45   46 1    
    89   45   49 1    
    90   45  107 1    
    91   46   47 1    
    92   46  108 1    
    93   46  109 1    
    94   47   48 1    
    95   48  110 1    
    96   48  111 1    
    97   49   50 am   BACKBONE|DICT|INTERRES
    98   49  112 1    
    99   50   51 2    
   100   50   52 1    
   101   52   53 1    
   102   52   54 1    
   103   52  113 1    
   104   53  114 1    
   105   53  115 1    
   106   53  116 1    
   107   54   55 am   BACKBONE|DICT|INTERRES
   108   54  117 1    
   109   55   56 2    
   110   55   57 1    
   111   57   58 1    
   112   57   59 1    
   113   57  118 1    
   114   58  119 1    
   115   58  120 1    
   116   58  121 1    
   117   59   60 am   BACKBONE|DICT|INTERRES
   118   59  122 1    
   119   60   61 2    
   120   60   62 1    
   121   62   63 1    
   122   62   64 1    
   123   62  123 1    
   124   63  124 1    
   125   63  125 1    
   126   63  126 1    
   127   64   65 am   BACKBONE|DICT|INTERRES
   128   64  127 1    
   129   65   66 2    
@<TRIPOS>SUBSTRUCTURE
     1 UNK         1 GROUP             0       ****    0 ROOT    
