@<TRIPOS>MOLECULE
3R135
127   129    1
SMALL
USER_CHARGES


@<TRIPOS>ATOM
      1 CA        -84.3202   30.6163  -75.8567 C.3       0 UNK        -0.1998 
      2 C         -82.8623   30.2097  -76.0132 C.2       0 UNK         0.4909 
      3 O         -82.2546   30.5026  -77.0437 O.2       0 UNK        -0.5240 
      4 N         -82.3009   29.5490  -74.9938 N.am      1 UNK        -0.4739 
      5 CA        -80.9348   29.0209  -74.9695 C.3       1 UNK         0.0864 
      6 C6        -80.2553   29.2679  -73.5927 C.3       11 UNK        -0.0881 
      7 S7        -81.1569   28.6072  -72.1435 S.3       11 UNK        -0.2682 
      8 C8        -80.1865   29.3076  -70.7694 C.3       11 UNK         0.0289 
      9 C9        -78.7215   28.9007  -70.8429 C.ar      11 UNK        -0.0687 
     10 C10       -78.3261   27.6136  -70.4665 C.ar      11 UNK        -0.0823 
     11 C11       -76.9865   27.2266  -70.5690 C.ar      11 UNK        -0.0830 
     12 C12       -76.0422   28.1381  -71.0495 C.ar      11 UNK        -0.1021 
     13 C13       -76.4217   29.4336  -71.4138 C.ar      11 UNK        -0.0753 
     14 C14       -77.7637   29.8087  -71.3059 C.ar      11 UNK        -0.0933 
     15 C15       -75.3942   30.4182  -71.9548 C.3       11 UNK         0.0166 
     16 S16       -73.9497   30.5861  -70.8604 S.3       11 UNK        -0.2615 
     17 C17       -72.9192   31.7432  -71.8263 C.3       11 UNK        -0.0865 
     18 CA        -71.7121   31.0819  -72.5433 C.3       10 UNK         0.0862 
     19 C         -70.6203   30.5763  -71.5537 C.2       10 UNK         0.5551 
     20 N         -70.2191   29.3112  -71.5957 N.am      10 UNK        -0.7319 
     21 O         -70.1146   31.3530  -70.7469 O.2       10 UNK        -0.5018 
     22 N         -72.1398   30.0943  -73.5513 N.am      10 UNK        -0.4509 
     23 C         -71.4836   29.8531  -74.6940 C.2       10 UNK         0.4899 
     24 O         -70.4578   30.4498  -75.0245 O.2       10 UNK        -0.4839 
     25 CA        -72.0348   28.7685  -75.6410 C.3       9 UNK         0.0222 
     26 CB        -71.1303   27.5273  -75.6182 C.3       9 UNK        -0.1966 
     27 N         -73.4265   28.3559  -75.4183 N.am      9 UNK        -0.4218 
     28 C         -74.4975   29.1429  -75.5917 C.2       9 UNK         0.5020 
     29 O         -74.4270   30.3454  -75.8539 O.2       9 UNK        -0.5274 
     30 CA        -75.8728   28.4572  -75.4595 C.3       8 UNK         0.0270 
     31 CB        -77.0495   29.4484  -75.5597 C.3       8 UNK        -0.1976 
     32 N         -76.0493   27.3686  -76.4285 N.am      8 UNK        -0.4313 
     33 C         -75.9542   27.4361  -77.7660 C.2       8 UNK         0.5041 
     34 O         -75.7391   28.4708  -78.4003 O.2       8 UNK        -0.5577 
     35 CA        -76.1298   26.0988  -78.5118 C.3       7 UNK         0.0284 
     36 CB        -75.8887   26.2085  -80.0325 C.3       7 UNK        -0.1958 
     37 N         -75.3133   25.0250  -77.9294 N.am      7 UNK        -0.4454 
     38 C         -73.9782   25.0066  -77.7872 C.2       7 UNK         0.5089 
     39 O         -73.2175   25.8735  -78.2190 O.2       7 UNK        -0.5125 
     40 CA        -73.4225   23.8139  -76.9857 C.3       6 UNK         0.0408 
     41 CB        -71.9100   23.8984  -76.6975 C.3       6 UNK        -0.1791 
     42 N         -74.1726   23.5848  -75.7461 N.am      6 UNK        -0.4762 
     43 C         -74.3959   24.4484  -74.7406 C.2       6 UNK         0.5007 
     44 O         -73.9357   25.5926  -74.7120 O.2       6 UNK        -0.5032 
     45 CA        -75.3251   23.9652  -73.6015 C.3       5 UNK         0.0783 
     46 C46       -75.9888   25.1457  -72.8497 C.3       11 UNK        -0.0857 
     47 S47       -76.9860   24.5899  -71.4253 S.3       11 UNK        -0.2512 
     48 C48       -76.5568   25.8250  -70.1600 C.3       11 UNK         0.0225 
     49 N         -76.3273   23.0242  -74.1150 N.am      5 UNK        -0.4615 
     50 C         -76.1817   21.6947  -74.1808 C.2       4 UNK         0.5053 
     51 O         -75.1892   21.0992  -73.7629 O.2       4 UNK        -0.5105 
     52 CA        -77.3020   20.8908  -74.8664 C.3       4 UNK         0.0263 
     53 CB        -78.2039   20.2319  -73.8102 C.3       4 UNK        -0.1981 
     54 N         -78.1363   21.6747  -75.7830 N.am      4 UNK        -0.4224 
     55 C         -77.7206   22.2956  -76.8980 C.2       3 UNK         0.4895 
     56 O         -76.5587   22.2922  -77.3044 O.2       3 UNK        -0.5091 
     57 CA        -78.7781   23.1188  -77.6509 C.3       3 UNK         0.0250 
     58 CB        -79.5670   22.2269  -78.6221 C.3       3 UNK        -0.1996 
     59 N         -79.7052   23.8062  -76.7463 N.am      3 UNK        -0.4254 
     60 C         -79.3577   24.7506  -75.8601 C.2       2 UNK         0.5004 
     61 O         -78.2134   25.2002  -75.7395 O.2       2 UNK        -0.5226 
     62 CA        -80.4614   25.1850  -74.8854 C.3       2 UNK         0.0269 
     63 CB        -80.3103   24.4396  -73.5505 C.3       2 UNK        -0.1926 
     64 N         -80.4416   26.6227  -74.6267 N.am      2 UNK        -0.4687 
     65 C         -80.9403   27.5507  -75.4524 C.2       1 UNK         0.5165 
     66 O         -81.4179   27.2760  -76.5556 O.2       1 UNK        -0.5079 
     67 H67       -84.4186   31.6986  -75.9357 H         1 UNK         0.0900 
     68 H68       -84.9227   30.1607  -76.6421 H         1 UNK         0.0900 
     69 H69       -84.7289   30.3084  -74.8944 H         1 UNK         0.0900 
     70 H70       -82.8550   29.3264  -74.1783 H         1 UNK         0.2959 
     71 H71       -80.3380   29.5592  -75.7092 H         1 UNK         0.1079 
     72 H72       -80.1372   30.3430  -73.4478 H         1 UNK         0.0837 
     73 H73       -79.2424   28.8639  -73.5892 H         1 UNK         0.0837 
     74 H74       -80.6129   28.9681  -69.8244 H         1 UNK         0.0685 
     75 H75       -80.2867   30.3941  -70.7772 H         1 UNK         0.0685 
     76 H76       -79.0640   26.9075  -70.1104 H         1 UNK         0.1434 
     77 H77       -75.0055   27.8429  -71.1354 H         1 UNK         0.1329 
     78 H78       -78.0685   30.8040  -71.5992 H         1 UNK         0.1335 
     79 H79       -75.8424   31.4028  -72.0978 H         1 UNK         0.0680 
     80 H80       -75.0665   30.0800  -72.9358 H         1 UNK         0.0680 
     81 H81       -73.5401   32.2568  -72.5620 H         1 UNK         0.1032 
     82 H82       -72.5718   32.5290  -71.1527 H         1 UNK         0.1032 
     83 H83       -71.2237   31.8956  -73.0831 H         1 UNK         0.0461 
     84 H84       -70.6243   28.6708  -72.2584 H         1 UNK         0.3453 
     85 H85       -69.5070   28.9963  -70.9559 H         1 UNK         0.3453 
     86 H86       -72.9574   29.5482  -73.3283 H         1 UNK         0.2984 
     87 H87       -71.9860   29.1906  -76.6469 H         1 UNK         0.0554 
     88 H88       -70.0766   27.7975  -75.7026 H         1 UNK         0.0847 
     89 H89       -71.3559   26.8763  -76.4613 H         1 UNK         0.0847 
     90 H90       -71.2504   26.9525  -74.6992 H         1 UNK         0.0847 
     91 H91       -73.5804   27.3709  -75.2063 H         1 UNK         0.3141 
     92 H92       -75.9070   28.0004  -74.4691 H         1 UNK         0.0743 
     93 H93       -77.0382   30.1573  -74.7312 H         1 UNK         0.0784 
     94 H94       -78.0000   28.9205  -75.5354 H         1 UNK         0.0784 
     95 H95       -77.0184   30.0239  -76.4857 H         1 UNK         0.0784 
     96 H96       -76.2747   26.4649  -76.0316 H         1 UNK         0.3213 
     97 H97       -77.1732   25.8217  -78.3661 H         1 UNK         0.0855 
     98 H98       -74.8731   26.5336  -80.2601 H         1 UNK         0.0814 
     99 H99       -76.5689   26.9321  -80.4834 H         1 UNK         0.0814 
    100 H100      -76.0556   25.2535  -80.5304 H         1 UNK         0.0814 
    101 H101      -75.8202   24.2305  -77.5532 H         1 UNK         0.3105 
    102 H102      -73.5852   22.9355  -77.6121 H         1 UNK         0.0547 
    103 H103      -71.5376   22.9582  -76.2914 H         1 UNK         0.0837 
    104 H104      -71.6763   24.6800  -75.9773 H         1 UNK         0.0837 
    105 H105      -71.3421   24.1032  -77.6059 H         1 UNK         0.0837 
    106 H106      -74.6345   22.6870  -75.6885 H         1 UNK         0.3020 
    107 H107      -74.6781   23.4476  -72.8894 H         1 UNK         0.1245 
    108 H108      -76.6333   25.7223  -73.5156 H         1 UNK         0.0781 
    109 H109      -75.2225   25.8334  -72.4901 H         1 UNK         0.0781 
    110 H110      -75.4837   25.7879  -69.9654 H         1 UNK         0.0836 
    111 H111      -77.0444   25.5545  -69.2224 H         1 UNK         0.0836 
    112 H112      -77.1575   23.4445  -74.5095 H         1 UNK         0.3022 
    113 H113      -76.8228   20.1028  -75.4511 H         1 UNK         0.0747 
    114 H114      -78.9510   19.5855  -74.2713 H         1 UNK         0.0793 
    115 H115      -77.6192   19.6114  -73.1294 H         1 UNK         0.0793 
    116 H116      -78.7264   20.9745  -73.2055 H         1 UNK         0.0793 
    117 H117      -79.1138   21.7479  -75.5427 H         1 UNK         0.3047 
    118 H118      -78.2573   23.8727  -78.2401 H         1 UNK         0.0822 
    119 H119      -80.2650   22.8127  -79.2206 H         1 UNK         0.0807 
    120 H120      -80.1365   21.4576  -78.0989 H         1 UNK         0.0807 
    121 H121      -78.8960   21.7192  -79.3168 H         1 UNK         0.0807 
    122 H122      -80.6677   23.5006  -76.7773 H         1 UNK         0.2946 
    123 H123      -81.4338   24.9279  -75.3126 H         1 UNK         0.1144 
    124 H124      -81.1161   24.6929  -72.8612 H         1 UNK         0.0793 
    125 H125      -79.3671   24.6834  -73.0630 H         1 UNK         0.0793 
    126 H126      -80.3350   23.3587  -73.6938 H         1 UNK         0.0793 
    127 H127      -80.0725   26.9194  -73.7339 H         1 UNK         0.2896 
@<TRIPOS>BOND
     1    1    2 1    
     2    1   67 1    
     3    1   68 1    
     4    1   69 1    
     5    2    3 2    
     6    2    4 am   BACKBONE|DICT|INTERRES
     7    4    5 1    
     8    4   70 1    
     9    5    6 1    
    10    5   65 1    
    11    5   71 1    
    12    6    7 1    
    13    6   72 1    
    14    6   73 1    
    15    7    8 1    
    16    8    9 1    
    17    8   74 1    
    18    8   75 1    
    19    9   10 ar   
    20    9   14 ar   
    21   10   11 ar   
    22   10   76 1    
    23   11   12 ar   
    24   11   48 1    
    25   12   13 ar   
    26   12   77 1    
    27   13   14 ar   
    28   13   15 1    
    29   14   78 1    
    30   15   16 1    
    31   15   79 1    
    32   15   80 1    
    33   16   17 1    
    34   17   18 1    
    35   17   81 1    
    36   17   82 1    
    37   18   19 1    
    38   18   22 1    
    39   18   83 1    
    40   19   20 am   BACKBONE|DICT|INTERRES
    41   19   21 2    
    42   20   84 1    
    43   20   85 1    
    44   22   23 am   BACKBONE|DICT|INTERRES
    45   22   86 1    
    46   23   24 2    
    47   23   25 1    
    48   25   26 1    
    49   25   27 1    
    50   25   87 1    
    51   26   88 1    
    52   26   89 1    
    53   26   90 1    
    54   27   28 am   BACKBONE|DICT|INTERRES
    55   27   91 1    
    56   28   29 2    
    57   28   30 1    
    58   30   31 1    
    59   30   32 1    
    60   30   92 1    
    61   31   93 1    
    62   31   94 1    
    63   31   95 1    
    64   32   33 am   BACKBONE|DICT|INTERRES
    65   32   96 1    
    66   33   34 2    
    67   33   35 1    
    68   35   36 1    
    69   35   37 1    
    70   35   97 1    
    71   36   98 1    
    72   36   99 1    
    73   36  100 1    
    74   37   38 am   BACKBONE|DICT|INTERRES
    75   37  101 1    
    76   38   39 2    
    77   38   40 1    
    78   40   41 1    
    79   40   42 1    
    80   40  102 1    
    81   41  103 1    
    82   41  104 1    
    83   41  105 1    
    84   42   43 am   BACKBONE|DICT|INTERRES
    85   42  106 1    
    86   43   44 2    
    87   43   45 1    
    88   45   46 1    
    89   45   49 1    
    90   45  107 1    
    91   46   47 1    
    92   46  108 1    
    93   46  109 1    
    94   47   48 1    
    95   48  110 1    
    96   48  111 1    
    97   49   50 am   BACKBONE|DICT|INTERRES
    98   49  112 1    
    99   50   51 2    
   100   50   52 1    
   101   52   53 1    
   102   52   54 1    
   103   52  113 1    
   104   53  114 1    
   105   53  115 1    
   106   53  116 1    
   107   54   55 am   BACKBONE|DICT|INTERRES
   108   54  117 1    
   109   55   56 2    
   110   55   57 1    
   111   57   58 1    
   112   57   59 1    
   113   57  118 1    
   114   58  119 1    
   115   58  120 1    
   116   58  121 1    
   117   59   60 am   BACKBONE|DICT|INTERRES
   118   59  122 1    
   119   60   61 2    
   120   60   62 1    
   121   62   63 1    
   122   62   64 1    
   123   62  123 1    
   124   63  124 1    
   125   63  125 1    
   126   63  126 1    
   127   64   65 am   BACKBONE|DICT|INTERRES
   128   64  127 1    
   129   65   66 2    
@<TRIPOS>SUBSTRUCTURE
     1 UNK         1 GROUP             0       ****    0 ROOT    
