@<TRIPOS>MOLECULE
3R135
127   129    1
SMALL
USER_CHARGES


@<TRIPOS>ATOM
      1 CA        -78.4769   31.2208  -75.8809 C.3       0 UNK        -0.1998 
      2 C         -79.5984   30.3464  -75.3408 C.2       0 UNK         0.4909 
      3 O         -80.7640   30.7393  -75.4039 O.2       0 UNK        -0.5240 
      4 N         -79.2469   29.1685  -74.8090 N.am      1 UNK        -0.4739 
      5 CA        -80.1587   28.1404  -74.2928 C.3       1 UNK         0.0864 
      6 C6        -80.9910   28.6230  -73.0692 C.3       11 UNK        -0.0881 
      7 S7        -81.2993   27.2769  -71.8726 S.3       11 UNK        -0.2682 
      8 C8        -80.3650   27.8419  -70.4156 C.3       11 UNK         0.0289 
      9 C9        -78.8611   27.6693  -70.5837 C.ar      11 UNK        -0.0687 
     10 C10       -78.2443   26.4728  -70.2051 C.ar      11 UNK        -0.0823 
     11 C11       -76.8553   26.3280  -70.2933 C.ar      11 UNK        -0.0830 
     12 C12       -76.0839   27.3873  -70.7842 C.ar      11 UNK        -0.1021 
     13 C13       -76.6909   28.5845  -71.1737 C.ar      11 UNK        -0.0753 
     14 C14       -78.0775   28.7207  -71.0677 C.ar      11 UNK        -0.0933 
     15 C15       -75.8533   29.7513  -71.6691 C.3       11 UNK         0.0166 
     16 S16       -75.7410   29.7702  -73.4844 S.3       11 UNK        -0.2615 
     17 C17       -75.1989   31.4948  -73.7683 C.3       11 UNK        -0.0865 
     18 CA        -73.6779   31.6668  -74.0218 C.3       10 UNK         0.0862 
     19 C         -72.8182   31.5099  -72.7312 C.2       10 UNK         0.5551 
     20 N         -71.7351   30.7409  -72.7310 N.am      10 UNK        -0.7319 
     21 O         -73.1327   32.1143  -71.7090 O.2       10 UNK        -0.5018 
     22 N         -73.2334   30.8510  -75.1587 N.am      10 UNK        -0.4509 
     23 C         -72.2407   31.1674  -75.9969 C.2       10 UNK         0.4899 
     24 O         -71.6306   32.2375  -75.9710 O.2       10 UNK        -0.4839 
     25 CA        -71.8661   30.0788  -77.0186 C.3       9 UNK         0.0222 
     26 CB        -70.5709   30.3956  -77.7963 C.3       9 UNK        -0.1966 
     27 N         -71.7998   28.7433  -76.4104 N.am      9 UNK        -0.4218 
     28 C         -70.9850   28.3385  -75.4200 C.2       9 UNK         0.5020 
     29 O         -70.1844   29.0842  -74.8541 O.2       9 UNK        -0.5274 
     30 CA        -71.0856   26.8742  -74.9405 C.3       8 UNK         0.0270 
     31 CB        -71.5481   26.8271  -73.4735 C.3       8 UNK        -0.1976 
     32 N         -71.9806   26.0426  -75.7502 N.am      8 UNK        -0.4313 
     33 C         -71.7337   25.6405  -77.0074 C.2       8 UNK         0.5041 
     34 O         -70.6507   25.8057  -77.5697 O.2       8 UNK        -0.5577 
     35 CA        -72.8908   24.9924  -77.7976 C.3       7 UNK         0.0284 
     36 CB        -72.6732   23.4758  -77.9163 C.3       7 UNK        -0.1958 
     37 N         -74.2237   25.2495  -77.2384 N.am      7 UNK        -0.4454 
     38 C         -74.7733   26.4631  -77.0621 C.2       7 UNK         0.5089 
     39 O         -74.2510   27.5053  -77.4593 O.2       7 UNK        -0.5125 
     40 CA        -76.0789   26.5499  -76.2447 C.3       6 UNK         0.0408 
     41 CB        -77.2751   26.7164  -77.1887 C.3       6 UNK        -0.1791 
     42 N         -76.3266   25.4082  -75.3549 N.am      6 UNK        -0.4762 
     43 C         -75.4824   24.9514  -74.4129 C.2       6 UNK         0.5007 
     44 O         -74.4195   25.5091  -74.1401 O.2       6 UNK        -0.5032 
     45 CA        -75.8214   23.5986  -73.7380 C.3       5 UNK         0.0783 
     46 C46       -76.4285   23.7936  -72.3274 C.3       11 UNK        -0.0857 
     47 S47       -75.1710   24.2370  -71.0852 S.3       11 UNK        -0.2512 
     48 C48       -76.1900   25.0440  -69.8098 C.3       11 UNK         0.0225 
     49 N         -76.6875   22.7404  -74.5547 N.am      5 UNK        -0.4615 
     50 C         -76.4612   22.3378  -75.8135 C.2       4 UNK         0.5053 
     51 O         -75.4113   22.5544  -76.4178 O.2       4 UNK        -0.5105 
     52 CA        -77.6208   21.6325  -76.5466 C.3       4 UNK         0.0263 
     53 CB        -77.3289   20.1297  -76.6843 C.3       4 UNK        -0.1981 
     54 N         -78.9451   21.8118  -75.9308 N.am      4 UNK        -0.4224 
     55 C         -79.5589   22.9834  -75.7056 C.2       3 UNK         0.4895 
     56 O         -79.0667   24.0810  -75.9821 O.2       3 UNK        -0.5091 
     57 CA        -80.9016   22.8996  -74.9612 C.3       3 UNK         0.0250 
     58 CB        -80.6709   22.5388  -73.4823 C.3       3 UNK        -0.1996 
     59 N         -81.6222   24.1693  -75.0128 N.am      3 UNK        -0.4254 
     60 C         -82.3673   24.6028  -76.0382 C.2       2 UNK         0.5004 
     61 O         -82.6075   23.9360  -77.0456 O.2       2 UNK        -0.5226 
     62 CA        -82.9501   26.0221  -75.9089 C.3       2 UNK         0.0269 
     63 CB        -84.3872   25.9677  -75.3654 C.3       2 UNK        -0.1926 
     64 N         -82.1351   26.8668  -75.0298 N.am      2 UNK        -0.4687 
     65 C         -81.0134   27.4919  -75.4117 C.2       1 UNK         0.5165 
     66 O         -80.6369   27.5322  -76.5852 O.2       1 UNK        -0.5079 
     67 H67       -78.3160   32.0737  -75.2221 H         1 UNK         0.0900 
     68 H68       -78.7361   31.5968  -76.8704 H         1 UNK         0.0900 
     69 H69       -77.5403   30.6701  -75.9671 H         1 UNK         0.0900 
     70 H70       -78.2683   28.9175  -74.7896 H         1 UNK         0.2959 
     71 H71       -79.4901   27.3471  -73.9527 H         1 UNK         0.1079 
     72 H72       -80.4710   29.4315  -72.5565 H         1 UNK         0.0837 
     73 H73       -81.9416   29.0630  -73.3776 H         1 UNK         0.0837 
     74 H74       -80.7018   27.2731  -69.5476 H         1 UNK         0.0685 
     75 H75       -80.6098   28.8835  -70.2016 H         1 UNK         0.0685 
     76 H76       -78.8480   25.6631  -69.8180 H         1 UNK         0.1434 
     77 H77       -75.0096   27.2817  -70.8535 H         1 UNK         0.1329 
     78 H78       -78.5411   29.6557  -71.3489 H         1 UNK         0.1335 
     79 H79       -76.2935   30.6840  -71.3133 H         1 UNK         0.0680 
     80 H80       -74.8485   29.7053  -71.2465 H         1 UNK         0.0680 
     81 H81       -75.7389   31.8627  -74.6412 H         1 UNK         0.1032 
     82 H82       -75.5290   32.1361  -72.9492 H         1 UNK         0.1032 
     83 H83       -73.5429   32.7123  -74.3056 H         1 UNK         0.0461 
     84 H84       -71.1929   30.6633  -71.8857 H         1 UNK         0.3453 
     85 H85       -71.4211   30.2740  -73.5718 H         1 UNK         0.3453 
     86 H86       -73.6685   29.9432  -75.2377 H         1 UNK         0.2984 
     87 H87       -72.6830   30.0435  -77.7408 H         1 UNK         0.0554 
     88 H88       -70.3437   29.6149  -78.5223 H         1 UNK         0.0847 
     89 H89       -69.7119   30.4957  -77.1319 H         1 UNK         0.0847 
     90 H90       -70.6653   31.3321  -78.3472 H         1 UNK         0.0847 
     91 H91       -72.4775   28.0795  -76.7745 H         1 UNK         0.3141 
     92 H92       -70.0828   26.4460  -74.9971 H         1 UNK         0.0743 
     93 H93       -70.8485   27.3549  -72.8239 H         1 UNK         0.0784 
     94 H94       -72.5256   27.2943  -73.3440 H         1 UNK         0.0784 
     95 H95       -71.6167   25.8020  -73.1089 H         1 UNK         0.0784 
     96 H96       -72.8896   25.8412  -75.3400 H         1 UNK         0.3213 
     97 H97       -72.8717   25.4210  -78.8017 H         1 UNK         0.0855 
     98 H98       -72.6907   22.9897  -76.9400 H         1 UNK         0.0814 
     99 H99       -71.7089   23.2527  -78.3750 H         1 UNK         0.0814 
    100 H100      -73.4408   23.0108  -78.5354 H         1 UNK         0.0814 
    101 H101      -74.7216   24.4386  -76.8835 H         1 UNK         0.3105 
    102 H102      -76.0096   27.4392  -75.6156 H         1 UNK         0.0547 
    103 H103      -77.1618   27.5992  -77.8194 H         1 UNK         0.0837 
    104 H104      -77.3956   25.8537  -77.8452 H         1 UNK         0.0837 
    105 H105      -78.1983   26.8349  -76.6267 H         1 UNK         0.0837 
    106 H106      -77.1805   24.8862  -75.5276 H         1 UNK         0.3020 
    107 H107      -74.8764   23.0598  -73.6378 H         1 UNK         0.1245 
    108 H108      -76.8914   22.8678  -71.9817 H         1 UNK         0.0781 
    109 H109      -77.2270   24.5377  -72.3492 H         1 UNK         0.0781 
    110 H110      -75.5560   25.2803  -68.9543 H         1 UNK         0.0836 
    111 H111      -76.9323   24.3294  -69.4506 H         1 UNK         0.0836 
    112 H112      -77.5829   22.5097  -74.1529 H         1 UNK         0.3022 
    113 H113      -77.6686   22.0653  -77.5479 H         1 UNK         0.0747 
    114 H114      -78.0838   19.6316  -77.2931 H         1 UNK         0.0793 
    115 H115      -76.3653   19.9610  -77.1676 H         1 UNK         0.0793 
    116 H116      -77.2971   19.6338  -75.7133 H         1 UNK         0.0793 
    117 H117      -79.4195   20.9641  -75.6528 H         1 UNK         0.3047 
    118 H118      -81.5122   22.1237  -75.4285 H         1 UNK         0.0822 
    119 H119      -80.1848   21.5679  -73.3787 H         1 UNK         0.0807 
    120 H120      -81.6144   22.4801  -72.9388 H         1 UNK         0.0807 
    121 H121      -80.0425   23.2749  -72.9784 H         1 UNK         0.0807 
    122 H122      -81.4558   24.8081  -74.2504 H         1 UNK         0.2946 
    123 H123      -82.9764   26.4610  -76.9092 H         1 UNK         0.1144 
    124 H124      -85.0245   25.3605  -76.0099 H         1 UNK         0.0793 
    125 H125      -84.8306   26.9626  -75.3182 H         1 UNK         0.0793 
    126 H126      -84.4268   25.5340  -74.3654 H         1 UNK         0.0793 
    127 H127      -82.3873   26.8938  -74.0500 H         1 UNK         0.2896 
@<TRIPOS>BOND
     1    1    2 1    
     2    1   67 1    
     3    1   68 1    
     4    1   69 1    
     5    2    3 2    
     6    2    4 am   BACKBONE|DICT|INTERRES
     7    4    5 1    
     8    4   70 1    
     9    5    6 1    
    10    5   65 1    
    11    5   71 1    
    12    6    7 1    
    13    6   72 1    
    14    6   73 1    
    15    7    8 1    
    16    8    9 1    
    17    8   74 1    
    18    8   75 1    
    19    9   10 ar   
    20    9   14 ar   
    21   10   11 ar   
    22   10   76 1    
    23   11   12 ar   
    24   11   48 1    
    25   12   13 ar   
    26   12   77 1    
    27   13   14 ar   
    28   13   15 1    
    29   14   78 1    
    30   15   16 1    
    31   15   79 1    
    32   15   80 1    
    33   16   17 1    
    34   17   18 1    
    35   17   81 1    
    36   17   82 1    
    37   18   19 1    
    38   18   22 1    
    39   18   83 1    
    40   19   20 am   BACKBONE|DICT|INTERRES
    41   19   21 2    
    42   20   84 1    
    43   20   85 1    
    44   22   23 am   BACKBONE|DICT|INTERRES
    45   22   86 1    
    46   23   24 2    
    47   23   25 1    
    48   25   26 1    
    49   25   27 1    
    50   25   87 1    
    51   26   88 1    
    52   26   89 1    
    53   26   90 1    
    54   27   28 am   BACKBONE|DICT|INTERRES
    55   27   91 1    
    56   28   29 2    
    57   28   30 1    
    58   30   31 1    
    59   30   32 1    
    60   30   92 1    
    61   31   93 1    
    62   31   94 1    
    63   31   95 1    
    64   32   33 am   BACKBONE|DICT|INTERRES
    65   32   96 1    
    66   33   34 2    
    67   33   35 1    
    68   35   36 1    
    69   35   37 1    
    70   35   97 1    
    71   36   98 1    
    72   36   99 1    
    73   36  100 1    
    74   37   38 am   BACKBONE|DICT|INTERRES
    75   37  101 1    
    76   38   39 2    
    77   38   40 1    
    78   40   41 1    
    79   40   42 1    
    80   40  102 1    
    81   41  103 1    
    82   41  104 1    
    83   41  105 1    
    84   42   43 am   BACKBONE|DICT|INTERRES
    85   42  106 1    
    86   43   44 2    
    87   43   45 1    
    88   45   46 1    
    89   45   49 1    
    90   45  107 1    
    91   46   47 1    
    92   46  108 1    
    93   46  109 1    
    94   47   48 1    
    95   48  110 1    
    96   48  111 1    
    97   49   50 am   BACKBONE|DICT|INTERRES
    98   49  112 1    
    99   50   51 2    
   100   50   52 1    
   101   52   53 1    
   102   52   54 1    
   103   52  113 1    
   104   53  114 1    
   105   53  115 1    
   106   53  116 1    
   107   54   55 am   BACKBONE|DICT|INTERRES
   108   54  117 1    
   109   55   56 2    
   110   55   57 1    
   111   57   58 1    
   112   57   59 1    
   113   57  118 1    
   114   58  119 1    
   115   58  120 1    
   116   58  121 1    
   117   59   60 am   BACKBONE|DICT|INTERRES
   118   59  122 1    
   119   60   61 2    
   120   60   62 1    
   121   62   63 1    
   122   62   64 1    
   123   62  123 1    
   124   63  124 1    
   125   63  125 1    
   126   63  126 1    
   127   64   65 am   BACKBONE|DICT|INTERRES
   128   64  127 1    
   129   65   66 2    
@<TRIPOS>SUBSTRUCTURE
     1 UNK         1 GROUP             0       ****    0 ROOT    
