@<TRIPOS>MOLECULE
3R135
127   129    1
SMALL
USER_CHARGES


@<TRIPOS>ATOM
      1 CA        -82.3722   26.5940  -71.6630 C.3       0 UNK        -0.1998 
      2 C         -82.3993   27.3734  -72.9687 C.2       0 UNK         0.4909 
      3 O         -83.4742   27.6249  -73.5134 O.2       0 UNK        -0.5240 
      4 N         -81.2186   27.7497  -73.4776 N.am      1 UNK        -0.4739 
      5 CA        -81.0449   28.4638  -74.7509 C.3       1 UNK         0.0864 
      6 C6        -79.6738   29.1882  -74.8304 C.3       11 UNK        -0.0881 
      7 S7        -79.5787   30.5784  -73.6478 S.3       11 UNK        -0.2682 
      8 C8        -77.7936   30.6524  -73.2447 C.3       11 UNK         0.0289 
      9 C9        -77.2734   29.6099  -72.2500 C.ar      11 UNK        -0.0687 
     10 C10       -78.1066   28.6876  -71.6079 C.ar      11 UNK        -0.0823 
     11 C11       -77.5742   27.6936  -70.7822 C.ar      11 UNK        -0.0830 
     12 C12       -76.2053   27.6816  -70.5099 C.ar      11 UNK        -0.1021 
     13 C13       -75.3642   28.6315  -71.0928 C.ar      11 UNK        -0.0753 
     14 C14       -75.9021   29.5741  -71.9779 C.ar      11 UNK        -0.0933 
     15 C15       -73.8718   28.6116  -70.7978 C.3       11 UNK         0.0166 
     16 S16       -73.2876   30.2183  -70.1644 S.3       11 UNK        -0.2615 
     17 C17       -71.6249   30.3144  -70.9098 C.3       11 UNK        -0.0865 
     18 CA        -71.6253   31.0442  -72.2804 C.3       10 UNK         0.0862 
     19 C         -70.1675   31.2739  -72.7777 C.2       10 UNK         0.5551 
     20 N         -69.7084   30.6126  -73.8346 N.am      10 UNK        -0.7319 
     21 O         -69.4412   32.0720  -72.1906 O.2       10 UNK        -0.5018 
     22 N         -72.4869   30.3581  -73.2546 N.am      10 UNK        -0.4509 
     23 C         -72.9620   30.8861  -74.3872 C.2       10 UNK         0.4899 
     24 O         -72.8481   32.0773  -74.6791 O.2       10 UNK        -0.4839 
     25 CA        -73.6865   29.9255  -75.3593 C.3       9 UNK         0.0222 
     26 CB        -73.3973   30.2944  -76.8291 C.3       9 UNK        -0.1966 
     27 N         -73.4332   28.4894  -75.1376 N.am      9 UNK        -0.4218 
     28 C         -72.2414   27.8666  -75.1254 C.2       9 UNK         0.5020 
     29 O         -71.1593   28.4457  -75.2350 O.2       9 UNK        -0.5274 
     30 CA        -72.2561   26.3422  -74.9305 C.3       8 UNK         0.0270 
     31 CB        -72.6930   25.9692  -73.5033 C.3       8 UNK        -0.1976 
     32 N         -73.1090   25.6662  -75.9078 N.am      8 UNK        -0.4313 
     33 C         -72.8543   25.5954  -77.2230 C.2       8 UNK         0.5041 
     34 O         -71.8265   26.0235  -77.7498 O.2       8 UNK        -0.5577 
     35 CA        -73.9343   24.9482  -78.1070 C.3       7 UNK         0.0284 
     36 CB        -73.7938   23.4180  -78.1118 C.3       7 UNK        -0.1958 
     37 N         -75.2897   25.3253  -77.6995 N.am      7 UNK        -0.4454 
     38 C         -75.7845   26.5679  -77.7905 C.2       7 UNK         0.5089 
     39 O         -75.1850   27.5079  -78.3099 O.2       7 UNK        -0.5125 
     40 CA        -77.1820   26.8103  -77.1993 C.3       6 UNK         0.0408 
     41 CB        -78.2561   26.5305  -78.2597 C.3       6 UNK        -0.1791 
     42 N         -77.4352   26.0249  -75.9850 N.am      6 UNK        -0.4762 
     43 C         -76.8171   26.2408  -74.8130 C.2       6 UNK         0.5007 
     44 O         -76.0108   27.1546  -74.6297 O.2       6 UNK        -0.5032 
     45 CA        -77.0931   25.2317  -73.6772 C.3       5 UNK         0.0783 
     46 C46       -78.4040   25.5433  -72.9084 C.3       11 UNK        -0.0857 
     47 S47       -78.2942   25.0324  -71.1568 S.3       11 UNK        -0.2512 
     48 C48       -78.4770   26.6000  -70.2330 C.3       11 UNK         0.0225 
     49 N         -77.0874   23.8559  -74.1811 N.am      5 UNK        -0.4615 
     50 C         -76.0028   23.2239  -74.6469 C.2       4 UNK         0.5053 
     51 O         -74.8797   23.7252  -74.6654 O.2       4 UNK        -0.5105 
     52 CA        -76.2064   21.8128  -75.2269 C.3       4 UNK         0.0263 
     53 CB        -76.0524   20.7547  -74.1234 C.3       4 UNK        -0.1981 
     54 N         -77.4945   21.6292  -75.9033 N.am      4 UNK        -0.4224 
     55 C         -77.9124   22.3230  -76.9721 C.2       3 UNK         0.4895 
     56 O         -77.2420   23.2027  -77.5143 O.2       3 UNK        -0.5091 
     57 CA        -79.3229   22.0165  -77.5196 C.3       3 UNK         0.0250 
     58 CB        -80.0547   20.8721  -76.7803 C.3       3 UNK        -0.1996 
     59 N         -80.1749   23.2140  -77.5616 N.am      3 UNK        -0.4254 
     60 C         -80.4487   24.0305  -76.5341 C.2       2 UNK         0.5004 
     61 O         -79.9865   23.8874  -75.3997 O.2       2 UNK        -0.5226 
     62 CA        -81.4009   25.1994  -76.8129 C.3       2 UNK         0.0269 
     63 CB        -82.8661   24.7322  -76.7737 C.3       2 UNK        -0.1926 
     64 N         -81.1963   26.2263  -75.7924 N.am      2 UNK        -0.4687 
     65 C         -81.2766   27.5505  -75.9774 C.2       1 UNK         0.5165 
     66 O         -81.5344   28.0650  -77.0663 O.2       1 UNK        -0.5079 
     67 H67       -82.5014   27.2693  -70.8178 H         1 UNK         0.0900 
     68 H68       -81.4344   26.0539  -71.5370 H         1 UNK         0.0900 
     69 H69       -83.1802   25.8632  -71.6419 H         1 UNK         0.0900 
     70 H70       -80.3734   27.5361  -72.9741 H         1 UNK         0.2959 
     71 H71       -81.8236   29.2283  -74.8093 H         1 UNK         0.1079 
     72 H72       -79.5099   29.6022  -75.8275 H         1 UNK         0.0837 
     73 H73       -78.8533   28.4917  -74.6532 H         1 UNK         0.0837 
     74 H74       -77.2246   30.5770  -74.1727 H         1 UNK         0.0685 
     75 H75       -77.5857   31.6423  -72.8364 H         1 UNK         0.0685 
     76 H76       -79.1708   28.7031  -71.7812 H         1 UNK         0.1434 
     77 H77       -75.7958   26.9187  -69.8618 H         1 UNK         0.1329 
     78 H78       -75.2476   30.2924  -72.4507 H         1 UNK         0.1335 
     79 H79       -73.3474   28.3390  -71.7117 H         1 UNK         0.0680 
     80 H80       -73.6259   27.8411  -70.0653 H         1 UNK         0.0680 
     81 H81       -71.1989   29.3132  -70.9986 H         1 UNK         0.1032 
     82 H82       -70.9871   30.8462  -70.2008 H         1 UNK         0.1032 
     83 H83       -72.0478   32.0384  -72.1216 H         1 UNK         0.0461 
     84 H84       -70.2884   29.9344  -74.3203 H         1 UNK         0.3453 
     85 H85       -68.7641   30.7753  -74.1450 H         1 UNK         0.3453 
     86 H86       -72.6121   29.3689  -73.1146 H         1 UNK         0.2984 
     87 H87       -74.7538   30.0683  -75.1847 H         1 UNK         0.0554 
     88 H88       -73.9389   29.6464  -77.5160 H         1 UNK         0.0847 
     89 H89       -72.3351   30.2146  -77.0628 H         1 UNK         0.0847 
     90 H90       -73.7037   31.3177  -77.0493 H         1 UNK         0.0847 
     91 H91       -74.2698   27.9243  -75.0018 H         1 UNK         0.3141 
     92 H92       -71.2357   25.9801  -75.0732 H         1 UNK         0.0743 
     93 H93       -73.7200   26.2719  -73.2957 H         1 UNK         0.0784 
     94 H94       -72.6276   24.8931  -73.3413 H         1 UNK         0.0784 
     95 H95       -72.0509   26.4451  -72.7612 H         1 UNK         0.0784 
     96 H96       -73.9376   25.2002  -75.5482 H         1 UNK         0.3213 
     97 H97       -73.7856   25.3044  -79.1288 H         1 UNK         0.0855 
     98 H98       -73.8669   23.0025  -77.1075 H         1 UNK         0.0814 
     99 H99       -72.8247   23.1203  -78.5143 H         1 UNK         0.0814 
    100 H100      -74.5605   22.9480  -78.7282 H         1 UNK         0.0814 
    101 H101      -75.8984   24.5858  -77.3592 H         1 UNK         0.3105 
    102 H102      -77.2432   27.8681  -76.9338 H         1 UNK         0.0547 
    103 H103      -78.0277   27.0487  -79.1923 H         1 UNK         0.0837 
    104 H104      -78.3371   25.4688  -78.4921 H         1 UNK         0.0837 
    105 H105      -79.2290   26.8896  -77.9361 H         1 UNK         0.0837 
    106 H106      -78.0334   25.2140  -76.0712 H         1 UNK         0.3020 
    107 H107      -76.2533   25.3372  -72.9854 H         1 UNK         0.1245 
    108 H108      -78.6605   26.5954  -72.9757 H         1 UNK         0.0781 
    109 H109      -79.2555   25.0268  -73.3458 H         1 UNK         0.0781 
    110 H110      -79.5211   26.9138  -70.2566 H         1 UNK         0.0836 
    111 H111      -78.2401   26.4224  -69.1830 H         1 UNK         0.0836 
    112 H112      -77.9875   23.3983  -74.2476 H         1 UNK         0.3022 
    113 H113      -75.4229   21.6453  -75.9676 H         1 UNK         0.0747 
    114 H114      -76.0992   19.7448  -74.5313 H         1 UNK         0.0793 
    115 H115      -75.0894   20.8541  -73.6202 H         1 UNK         0.0793 
    116 H116      -76.8285   20.8475  -73.3624 H         1 UNK         0.0793 
    117 H117      -78.1185   20.9388  -75.5118 H         1 UNK         0.3047 
    118 H118      -79.1781   21.7021  -78.5543 H         1 UNK         0.0822 
    119 H119      -81.0183   20.6641  -77.2458 H         1 UNK         0.0807 
    120 H120      -80.2455   21.1118  -75.7333 H         1 UNK         0.0807 
    121 H121      -79.4830   19.9437  -76.8160 H         1 UNK         0.0807 
    122 H122      -80.5787   23.4242  -78.4639 H         1 UNK         0.2946 
    123 H123      -81.1778   25.6019  -77.8030 H         1 UNK         0.1144 
    124 H124      -83.0567   23.9647  -77.5250 H         1 UNK         0.0793 
    125 H125      -83.5495   25.5575  -76.9744 H         1 UNK         0.0793 
    126 H126      -83.1279   24.3116  -75.8018 H         1 UNK         0.0793 
    127 H127      -80.9401   25.8668  -74.8829 H         1 UNK         0.2896 
@<TRIPOS>BOND
     1    1    2 1    
     2    1   67 1    
     3    1   68 1    
     4    1   69 1    
     5    2    3 2    
     6    2    4 am   BACKBONE|DICT|INTERRES
     7    4    5 1    
     8    4   70 1    
     9    5    6 1    
    10    5   65 1    
    11    5   71 1    
    12    6    7 1    
    13    6   72 1    
    14    6   73 1    
    15    7    8 1    
    16    8    9 1    
    17    8   74 1    
    18    8   75 1    
    19    9   10 ar   
    20    9   14 ar   
    21   10   11 ar   
    22   10   76 1    
    23   11   12 ar   
    24   11   48 1    
    25   12   13 ar   
    26   12   77 1    
    27   13   14 ar   
    28   13   15 1    
    29   14   78 1    
    30   15   16 1    
    31   15   79 1    
    32   15   80 1    
    33   16   17 1    
    34   17   18 1    
    35   17   81 1    
    36   17   82 1    
    37   18   19 1    
    38   18   22 1    
    39   18   83 1    
    40   19   20 am   BACKBONE|DICT|INTERRES
    41   19   21 2    
    42   20   84 1    
    43   20   85 1    
    44   22   23 am   BACKBONE|DICT|INTERRES
    45   22   86 1    
    46   23   24 2    
    47   23   25 1    
    48   25   26 1    
    49   25   27 1    
    50   25   87 1    
    51   26   88 1    
    52   26   89 1    
    53   26   90 1    
    54   27   28 am   BACKBONE|DICT|INTERRES
    55   27   91 1    
    56   28   29 2    
    57   28   30 1    
    58   30   31 1    
    59   30   32 1    
    60   30   92 1    
    61   31   93 1    
    62   31   94 1    
    63   31   95 1    
    64   32   33 am   BACKBONE|DICT|INTERRES
    65   32   96 1    
    66   33   34 2    
    67   33   35 1    
    68   35   36 1    
    69   35   37 1    
    70   35   97 1    
    71   36   98 1    
    72   36   99 1    
    73   36  100 1    
    74   37   38 am   BACKBONE|DICT|INTERRES
    75   37  101 1    
    76   38   39 2    
    77   38   40 1    
    78   40   41 1    
    79   40   42 1    
    80   40  102 1    
    81   41  103 1    
    82   41  104 1    
    83   41  105 1    
    84   42   43 am   BACKBONE|DICT|INTERRES
    85   42  106 1    
    86   43   44 2    
    87   43   45 1    
    88   45   46 1    
    89   45   49 1    
    90   45  107 1    
    91   46   47 1    
    92   46  108 1    
    93   46  109 1    
    94   47   48 1    
    95   48  110 1    
    96   48  111 1    
    97   49   50 am   BACKBONE|DICT|INTERRES
    98   49  112 1    
    99   50   51 2    
   100   50   52 1    
   101   52   53 1    
   102   52   54 1    
   103   52  113 1    
   104   53  114 1    
   105   53  115 1    
   106   53  116 1    
   107   54   55 am   BACKBONE|DICT|INTERRES
   108   54  117 1    
   109   55   56 2    
   110   55   57 1    
   111   57   58 1    
   112   57   59 1    
   113   57  118 1    
   114   58  119 1    
   115   58  120 1    
   116   58  121 1    
   117   59   60 am   BACKBONE|DICT|INTERRES
   118   59  122 1    
   119   60   61 2    
   120   60   62 1    
   121   62   63 1    
   122   62   64 1    
   123   62  123 1    
   124   63  124 1    
   125   63  125 1    
   126   63  126 1    
   127   64   65 am   BACKBONE|DICT|INTERRES
   128   64  127 1    
   129   65   66 2    
@<TRIPOS>SUBSTRUCTURE
     1 UNK         1 GROUP             0       ****    0 ROOT    
