@<TRIPOS>MOLECULE
3R135
127   129    1
SMALL
USER_CHARGES


@<TRIPOS>ATOM
      1 CA        -84.3011   24.4862  -74.1613 C.3       0 UNK        -0.1998 
      2 C         -83.5952   25.8095  -73.9105 C.2       0 UNK         0.4909 
      3 O         -83.5269   26.6479  -74.8101 O.2       0 UNK        -0.5240 
      4 N         -83.0600   26.0065  -72.6978 N.am      1 UNK        -0.4739 
      5 CA        -82.2578   27.1776  -72.3277 C.3       1 UNK         0.0864 
      6 C6        -81.9978   27.2248  -70.8024 C.3       11 UNK        -0.0881 
      7 S7        -81.5679   28.9001  -70.2172 S.3       11 UNK        -0.2682 
      8 C8        -79.9815   28.6209  -69.3652 C.3       11 UNK         0.0289 
      9 C9        -78.8292   28.4389  -70.3422 C.ar      11 UNK        -0.0687 
     10 C10       -78.3718   27.1599  -70.6687 C.ar      11 UNK        -0.0823 
     11 C11       -77.3175   26.9783  -71.5701 C.ar      11 UNK        -0.0830 
     12 C12       -76.7051   28.1076  -72.1318 C.ar      11 UNK        -0.1021 
     13 C13       -77.1589   29.3945  -71.8172 C.ar      11 UNK        -0.0753 
     14 C14       -78.2170   29.5534  -70.9192 C.ar      11 UNK        -0.0933 
     15 C15       -76.5409   30.6132  -72.4827 C.3       11 UNK         0.0166 
     16 S16       -75.0905   31.2201  -71.5648 S.3       11 UNK        -0.2615 
     17 C17       -74.3890   32.3846  -72.7929 C.3       11 UNK        -0.0865 
     18 CA        -73.2188   31.7863  -73.6247 C.3       10 UNK         0.0862 
     19 C         -71.8630   31.8152  -72.8576 C.2       10 UNK         0.5551 
     20 N         -71.1654   30.7001  -72.6746 N.am      10 UNK        -0.7319 
     21 O         -71.4249   32.8820  -72.4335 O.2       10 UNK        -0.5018 
     22 N         -73.5891   30.4723  -74.1606 N.am      10 UNK        -0.4509 
     23 C         -73.1353   29.9063  -75.2791 C.2       10 UNK         0.4899 
     24 O         -72.3777   30.4478  -76.0857 O.2       10 UNK        -0.4839 
     25 CA        -73.6310   28.4711  -75.5190 C.3       9 UNK         0.0222 
     26 CB        -74.5047   28.3969  -76.7815 C.3       9 UNK        -0.1966 
     27 N         -72.5393   27.4945  -75.5936 N.am      9 UNK        -0.4218 
     28 C         -71.6121   27.3008  -74.6388 C.2       9 UNK         0.5020 
     29 O         -71.5848   27.9386  -73.5842 O.2       9 UNK        -0.5274 
     30 CA        -70.5502   26.2006  -74.8471 C.3       8 UNK         0.0270 
     31 CB        -70.7018   25.1039  -73.7779 C.3       8 UNK        -0.1976 
     32 N         -70.5869   25.5693  -76.1663 N.am      8 UNK        -0.4313 
     33 C         -70.1483   26.1115  -77.3098 C.2       8 UNK         0.5041 
     34 O         -69.5738   27.1983  -77.3751 O.2       8 UNK        -0.5577 
     35 CA        -70.4179   25.3163  -78.6050 C.3       7 UNK         0.0284 
     36 CB        -69.1368   24.6091  -79.0769 C.3       7 UNK        -0.1958 
     37 N         -71.5028   24.3276  -78.4986 N.am      7 UNK        -0.4454 
     38 C         -72.7817   24.6123  -78.2106 C.2       7 UNK         0.5089 
     39 O         -73.1761   25.7594  -78.0006 O.2       7 UNK        -0.5125 
     40 CA        -73.7732   23.4391  -78.0821 C.3       6 UNK         0.0408 
     41 CB        -73.1219   22.0452  -78.1994 C.3       6 UNK        -0.1791 
     42 N         -74.4625   23.5325  -76.7928 N.am      6 UNK        -0.4762 
     43 C         -75.6568   24.1062  -76.5948 C.2       6 UNK         0.5007 
     44 O         -76.3624   24.5574  -77.5003 O.2       6 UNK        -0.5032 
     45 CA        -76.1210   24.2071  -75.1273 C.3       5 UNK         0.0783 
     46 C46       -75.6101   25.5126  -74.4607 C.3       11 UNK        -0.0857 
     47 S47       -75.2786   25.3045  -72.6798 S.3       11 UNK        -0.2512 
     48 C48       -76.9244   25.5417  -71.9229 C.3       11 UNK         0.0225 
     49 N         -77.5800   24.1260  -75.0774 N.am      5 UNK        -0.4615 
     50 C         -78.2834   22.9881  -75.0296 C.2       4 UNK         0.5053 
     51 O         -77.7691   21.8732  -74.9354 O.2       4 UNK        -0.5105 
     52 CA        -79.8179   23.1011  -75.0900 C.3       4 UNK         0.0263 
     53 CB        -80.4306   22.8939  -73.6947 C.3       4 UNK        -0.1981 
     54 N         -80.2634   24.3867  -75.6367 N.am      4 UNK        -0.4224 
     55 C         -80.3169   24.6595  -76.9509 C.2       3 UNK         0.4895 
     56 O         -80.0833   23.8238  -77.8249 O.2       3 UNK        -0.5091 
     57 CA        -80.6934   26.0896  -77.3844 C.3       3 UNK         0.0250 
     58 CB        -82.1210   26.1239  -77.9541 C.3       3 UNK        -0.1996 
     59 N         -80.5725   27.0811  -76.3128 N.am      3 UNK        -0.4254 
     60 C         -79.4055   27.5468  -75.8422 C.2       2 UNK         0.5004 
     61 O         -78.3095   27.2201  -76.2942 O.2       2 UNK        -0.5226 
     62 CA        -79.4564   28.4981  -74.6330 C.3       2 UNK         0.0269 
     63 CB        -79.3520   29.9635  -75.0821 C.3       2 UNK        -0.1926 
     64 N         -80.6350   28.3294  -73.7760 N.am      2 UNK        -0.4687 
     65 C         -80.9492   27.1914  -73.1423 C.2       1 UNK         0.5165 
     66 O         -80.2776   26.1604  -73.2233 O.2       1 UNK        -0.5079 
     67 H67       -85.3395   24.6620  -74.4403 H         1 UNK         0.0900 
     68 H68       -83.8138   23.9525  -74.9770 H         1 UNK         0.0900 
     69 H69       -84.2893   23.8443  -73.2806 H         1 UNK         0.0900 
     70 H70       -83.1211   25.2762  -72.0030 H         1 UNK         0.2959 
     71 H71       -82.8465   28.0563  -72.6018 H         1 UNK         0.1079 
     72 H72       -81.2392   26.4983  -70.5068 H         1 UNK         0.0837 
     73 H73       -82.9030   26.9365  -70.2655 H         1 UNK         0.0837 
     74 H74       -80.0673   27.7603  -68.6998 H         1 UNK         0.0685 
     75 H75       -79.7759   29.4783  -68.7227 H         1 UNK         0.0685 
     76 H76       -78.8529   26.2954  -70.2324 H         1 UNK         0.1434 
     77 H77       -75.8939   27.9943  -72.8350 H         1 UNK         0.1329 
     78 H78       -78.5737   30.5453  -70.6773 H         1 UNK         0.1335 
     79 H79       -77.2761   31.4162  -72.5565 H         1 UNK         0.0680 
     80 H80       -76.2646   30.3641  -73.5078 H         1 UNK         0.0680 
     81 H81       -74.0787   33.2948  -72.2759 H         1 UNK         0.1032 
     82 H82       -75.1829   32.7048  -73.4695 H         1 UNK         0.1032 
     83 H83       -73.0691   32.4510  -74.4776 H         1 UNK         0.0461 
     84 H84       -71.4933   29.8058  -73.0276 H         1 UNK         0.3453 
     85 H85       -70.2895   30.7469  -72.1799 H         1 UNK         0.3453 
     86 H86       -74.1574   29.9195  -73.5361 H         1 UNK         0.2984 
     87 H87       -74.2556   28.1788  -74.6731 H         1 UNK         0.0554 
     88 H88       -75.3056   29.1368  -76.7490 H         1 UNK         0.0847 
     89 H89       -74.9794   27.4207  -76.8837 H         1 UNK         0.0847 
     90 H90       -73.9228   28.5829  -77.6851 H         1 UNK         0.0847 
     91 H91       -72.5027   26.9307  -76.4362 H         1 UNK         0.3141 
     92 H92       -69.5727   26.6705  -74.7196 H         1 UNK         0.0743 
     93 H93       -69.9270   24.3430  -73.8743 H         1 UNK         0.0784 
     94 H94       -70.6165   25.5216  -72.7736 H         1 UNK         0.0784 
     95 H95       -71.6722   24.6093  -73.8409 H         1 UNK         0.0784 
     96 H96       -71.0309   24.6650  -76.2204 H         1 UNK         0.3213 
     97 H97       -70.7096   26.0415  -79.3679 H         1 UNK         0.0855 
     98 H98       -68.8074   23.8513  -78.3648 H         1 UNK         0.0814 
     99 H99       -68.3188   25.3213  -79.1952 H         1 UNK         0.0814 
    100 H100      -69.2818   24.1246  -80.0427 H         1 UNK         0.0814 
    101 H101      -71.2508   23.3624  -78.6572 H         1 UNK         0.3105 
    102 H102      -74.4900   23.5390  -78.8996 H         1 UNK         0.0547 
    103 H103      -72.3692   21.8729  -77.4288 H         1 UNK         0.0837 
    104 H104      -72.6486   21.9067  -79.1724 H         1 UNK         0.0837 
    105 H105      -73.8711   21.2588  -78.1039 H         1 UNK         0.0837 
    106 H106      -73.9427   23.2089  -75.9893 H         1 UNK         0.3020 
    107 H107      -75.7028   23.3491  -74.5951 H         1 UNK         0.1245 
    108 H108      -76.2932   26.3473  -74.6269 H         1 UNK         0.0781 
    109 H109      -74.6577   25.8169  -74.8955 H         1 UNK         0.0781 
    110 H110      -76.9402   24.9443  -71.0101 H         1 UNK         0.0836 
    111 H111      -77.6932   25.1186  -72.5688 H         1 UNK         0.0836 
    112 H112      -78.0730   24.9923  -75.2432 H         1 UNK         0.3022 
    113 H113      -80.1819   22.2987  -75.7354 H         1 UNK         0.0747 
    114 H114      -81.5151   23.0002  -73.7143 H         1 UNK         0.0793 
    115 H115      -80.2097   21.8934  -73.3209 H         1 UNK         0.0793 
    116 H116      -80.0351   23.6022  -72.9667 H         1 UNK         0.0793 
    117 H117      -80.4403   25.1248  -74.9622 H         1 UNK         0.3047 
    118 H118      -80.0053   26.3731  -78.1841 H         1 UNK         0.0822 
    119 H119      -82.3936   27.1250  -78.2885 H         1 UNK         0.0807 
    120 H120      -82.8587   25.8011  -77.2195 H         1 UNK         0.0807 
    121 H121      -82.2118   25.4603  -78.8152 H         1 UNK         0.0807 
    122 H122      -81.4309   27.3720  -75.8623 H         1 UNK         0.2946 
    123 H123      -78.5824   28.2638  -74.0268 H         1 UNK         0.1144 
    124 H124      -79.2800   30.6355  -74.2268 H         1 UNK         0.0793 
    125 H125      -80.2141   30.2656  -75.6779 H         1 UNK         0.0793 
    126 H126      -78.4610   30.1217  -75.6916 H         1 UNK         0.0793 
    127 H127      -81.2361   29.1337  -73.6675 H         1 UNK         0.2896 
@<TRIPOS>BOND
     1    1    2 1    
     2    1   67 1    
     3    1   68 1    
     4    1   69 1    
     5    2    3 2    
     6    2    4 am   BACKBONE|DICT|INTERRES
     7    4    5 1    
     8    4   70 1    
     9    5    6 1    
    10    5   65 1    
    11    5   71 1    
    12    6    7 1    
    13    6   72 1    
    14    6   73 1    
    15    7    8 1    
    16    8    9 1    
    17    8   74 1    
    18    8   75 1    
    19    9   10 ar   
    20    9   14 ar   
    21   10   11 ar   
    22   10   76 1    
    23   11   12 ar   
    24   11   48 1    
    25   12   13 ar   
    26   12   77 1    
    27   13   14 ar   
    28   13   15 1    
    29   14   78 1    
    30   15   16 1    
    31   15   79 1    
    32   15   80 1    
    33   16   17 1    
    34   17   18 1    
    35   17   81 1    
    36   17   82 1    
    37   18   19 1    
    38   18   22 1    
    39   18   83 1    
    40   19   20 am   BACKBONE|DICT|INTERRES
    41   19   21 2    
    42   20   84 1    
    43   20   85 1    
    44   22   23 am   BACKBONE|DICT|INTERRES
    45   22   86 1    
    46   23   24 2    
    47   23   25 1    
    48   25   26 1    
    49   25   27 1    
    50   25   87 1    
    51   26   88 1    
    52   26   89 1    
    53   26   90 1    
    54   27   28 am   BACKBONE|DICT|INTERRES
    55   27   91 1    
    56   28   29 2    
    57   28   30 1    
    58   30   31 1    
    59   30   32 1    
    60   30   92 1    
    61   31   93 1    
    62   31   94 1    
    63   31   95 1    
    64   32   33 am   BACKBONE|DICT|INTERRES
    65   32   96 1    
    66   33   34 2    
    67   33   35 1    
    68   35   36 1    
    69   35   37 1    
    70   35   97 1    
    71   36   98 1    
    72   36   99 1    
    73   36  100 1    
    74   37   38 am   BACKBONE|DICT|INTERRES
    75   37  101 1    
    76   38   39 2    
    77   38   40 1    
    78   40   41 1    
    79   40   42 1    
    80   40  102 1    
    81   41  103 1    
    82   41  104 1    
    83   41  105 1    
    84   42   43 am   BACKBONE|DICT|INTERRES
    85   42  106 1    
    86   43   44 2    
    87   43   45 1    
    88   45   46 1    
    89   45   49 1    
    90   45  107 1    
    91   46   47 1    
    92   46  108 1    
    93   46  109 1    
    94   47   48 1    
    95   48  110 1    
    96   48  111 1    
    97   49   50 am   BACKBONE|DICT|INTERRES
    98   49  112 1    
    99   50   51 2    
   100   50   52 1    
   101   52   53 1    
   102   52   54 1    
   103   52  113 1    
   104   53  114 1    
   105   53  115 1    
   106   53  116 1    
   107   54   55 am   BACKBONE|DICT|INTERRES
   108   54  117 1    
   109   55   56 2    
   110   55   57 1    
   111   57   58 1    
   112   57   59 1    
   113   57  118 1    
   114   58  119 1    
   115   58  120 1    
   116   58  121 1    
   117   59   60 am   BACKBONE|DICT|INTERRES
   118   59  122 1    
   119   60   61 2    
   120   60   62 1    
   121   62   63 1    
   122   62   64 1    
   123   62  123 1    
   124   63  124 1    
   125   63  125 1    
   126   63  126 1    
   127   64   65 am   BACKBONE|DICT|INTERRES
   128   64  127 1    
   129   65   66 2    
@<TRIPOS>SUBSTRUCTURE
     1 UNK         1 GROUP             0       ****    0 ROOT    
