@<TRIPOS>MOLECULE
3R135
127   129    1
SMALL
USER_CHARGES


@<TRIPOS>ATOM
      1 CA        -84.9176   26.9038  -70.4563 C.3       0 UNK        -0.1998 
      2 C         -84.7643   26.9495  -71.9690 C.2       0 UNK         0.4909 
      3 O         -85.4576   26.2193  -72.6778 O.2       0 UNK        -0.5240 
      4 N         -83.8616   27.8033  -72.4689 N.am      1 UNK        -0.4739 
      5 CA        -83.5510   27.9661  -73.8959 C.3       1 UNK         0.0864 
      6 C6        -82.8400   29.3151  -74.1869 C.3       11 UNK        -0.0881 
      7 S7        -81.4222   29.6700  -73.0896 S.3       11 UNK        -0.2682 
      8 C8        -80.0323   29.2272  -74.1737 C.3       11 UNK         0.0289 
      9 C9        -78.7492   29.0177  -73.3851 C.ar      11 UNK        -0.0687 
     10 C10       -78.6677   27.9687  -72.4672 C.ar      11 UNK        -0.0823 
     11 C11       -77.4803   27.7142  -71.7794 C.ar      11 UNK        -0.0830 
     12 C12       -76.3584   28.5098  -72.0260 C.ar      11 UNK        -0.1021 
     13 C13       -76.4231   29.5612  -72.9471 C.ar      11 UNK        -0.0753 
     14 C14       -77.6275   29.8212  -73.6114 C.ar      11 UNK        -0.0933 
     15 C15       -75.1716   30.3530  -73.3007 C.3       11 UNK         0.0166 
     16 S16       -74.3641   31.0954  -71.8463 S.3       11 UNK        -0.2615 
     17 C17       -73.0138   32.0854  -72.5889 C.3       11 UNK        -0.0865 
     18 CA        -72.2430   31.4260  -73.7683 C.3       10 UNK         0.0862 
     19 C         -71.1634   32.3957  -74.3343 C.2       10 UNK         0.5551 
     20 N         -69.8805   32.0551  -74.3103 N.am      10 UNK        -0.7319 
     21 O         -71.5003   33.4779  -74.8082 O.2       10 UNK        -0.5018 
     22 N         -71.7408   30.0866  -73.4136 N.am      10 UNK        -0.4509 
     23 C         -71.4582   29.1175  -74.2941 C.2       10 UNK         0.4899 
     24 O         -71.5824   29.2490  -75.5127 O.2       10 UNK        -0.4839 
     25 CA        -70.9171   27.7946  -73.7239 C.3       9 UNK         0.0222 
     26 CB        -71.3836   27.5056  -72.2805 C.3       9 UNK        -0.1966 
     27 N         -71.3205   26.6833  -74.5865 N.am      9 UNK        -0.4218 
     28 C         -70.4985   25.7578  -75.0954 C.2       9 UNK         0.5020 
     29 O         -69.2803   25.7485  -74.9081 O.2       9 UNK        -0.5274 
     30 CA        -71.1207   24.6229  -75.9292 C.3       8 UNK         0.0270 
     31 CB        -71.4084   23.4027  -75.0394 C.3       8 UNK        -0.1976 
     32 N         -72.3361   24.9922  -76.6625 N.am      8 UNK        -0.4313 
     33 C         -72.3386   25.7355  -77.7789 C.2       8 UNK         0.5041 
     34 O         -71.3301   26.2579  -78.2558 O.2       8 UNK        -0.5577 
     35 CA        -73.6810   25.8936  -78.5117 C.3       7 UNK         0.0284 
     36 CB        -74.0383   24.6132  -79.2847 C.3       7 UNK        -0.1958 
     37 N         -74.7686   26.2325  -77.5973 N.am      7 UNK        -0.4454 
     38 C         -74.9962   27.4638  -77.1206 C.2       7 UNK         0.5089 
     39 O         -74.3750   28.4649  -77.4768 O.2       7 UNK        -0.5125 
     40 CA        -76.1008   27.6028  -76.0582 C.3       6 UNK         0.0408 
     41 CB        -77.4625   27.8251  -76.7311 C.3       6 UNK        -0.1791 
     42 N         -76.1614   26.4563  -75.1423 N.am      6 UNK        -0.4762 
     43 C         -75.1588   26.1186  -74.3142 C.2       6 UNK         0.5007 
     44 O         -74.1391   26.7935  -74.1832 O.2       6 UNK        -0.5032 
     45 CA        -75.2326   24.7665  -73.5789 C.3       5 UNK         0.0783 
     46 C46       -75.5378   24.8848  -72.0649 C.3       11 UNK        -0.0857 
     47 S47       -77.3071   24.9612  -71.6336 S.3       11 UNK        -0.2512 
     48 C48       -77.4208   26.5666  -70.7865 C.3       11 UNK         0.0225 
     49 N         -76.0704   23.7889  -74.2772 N.am      5 UNK        -0.4615 
     50 C         -75.6980   23.1710  -75.4044 C.2       4 UNK         0.5053 
     51 O         -74.6106   23.3533  -75.9532 O.2       4 UNK        -0.5105 
     52 CA        -76.7291   22.2331  -76.0483 C.3       4 UNK         0.0263 
     53 CB        -76.9860   20.9985  -75.1681 C.3       4 UNK        -0.1981 
     54 N         -77.9958   22.9082  -76.3419 N.am      4 UNK        -0.4224 
     55 C         -78.1319   23.9400  -77.1878 C.2       3 UNK         0.4895 
     56 O         -77.1951   24.4469  -77.8048 O.2       3 UNK        -0.5091 
     57 CA        -79.5489   24.5042  -77.3915 C.3       3 UNK         0.0250 
     58 CB        -80.2051   23.8606  -78.6235 C.3       3 UNK        -0.1996 
     59 N         -80.4389   24.3544  -76.2362 N.am      3 UNK        -0.4254 
     60 C         -80.2701   24.9645  -75.0551 C.2       2 UNK         0.5004 
     61 O         -79.2890   25.6531  -74.7728 O.2       2 UNK        -0.5226 
     62 CA        -81.3832   24.7542  -74.0124 C.3       2 UNK         0.0269 
     63 CB        -80.8268   24.1117  -72.7321 C.3       2 UNK        -0.1926 
     64 N         -82.0794   25.9950  -73.6598 N.am      2 UNK        -0.4687 
     65 C         -82.7981   26.7569  -74.4994 C.2       1 UNK         0.5165 
     66 O         -82.9173   26.5191  -75.7022 O.2       1 UNK        -0.5079 
     67 H67       -85.9398   27.1557  -70.1751 H         1 UNK         0.0900 
     68 H68       -84.2468   27.6030  -69.9572 H         1 UNK         0.0900 
     69 H69       -84.6992   25.9021  -70.0871 H         1 UNK         0.0900 
     70 H70       -83.3195   28.3863  -71.8454 H         1 UNK         0.2959 
     71 H71       -84.5071   27.9975  -74.4242 H         1 UNK         0.1079 
     72 H72       -82.5334   29.3822  -75.2329 H         1 UNK         0.0837 
     73 H73       -83.5570   30.1259  -74.0491 H         1 UNK         0.0837 
     74 H74       -79.9072   30.0021  -74.9315 H         1 UNK         0.0685 
     75 H75       -80.2639   28.3045  -74.7066 H         1 UNK         0.0685 
     76 H76       -79.5274   27.3330  -72.3066 H         1 UNK         0.1434 
     77 H77       -75.4249   28.2977  -71.5232 H         1 UNK         0.1329 
     78 H78       -77.6789   30.6182  -74.3402 H         1 UNK         0.1335 
     79 H79       -75.4037   31.1425  -74.0170 H         1 UNK         0.0680 
     80 H80       -74.4788   29.6714  -73.7947 H         1 UNK         0.0680 
     81 H81       -73.4515   33.0314  -72.9142 H         1 UNK         0.1032 
     82 H82       -72.3183   32.3441  -71.7882 H         1 UNK         0.1032 
     83 H83       -72.9502   31.2999  -74.5894 H         1 UNK         0.0461 
     84 H84       -69.1924   32.6904  -74.6828 H         1 UNK         0.3453 
     85 H85       -69.5957   31.1682  -73.9276 H         1 UNK         0.3453 
     86 H86       -71.6125   29.9075  -72.4290 H         1 UNK         0.2984 
     87 H87       -69.8298   27.8900  -73.7168 H         1 UNK         0.0554 
     88 H88       -71.0571   26.5186  -71.9525 H         1 UNK         0.0847 
     89 H89       -72.4705   27.5395  -72.1913 H         1 UNK         0.0847 
     90 H90       -70.9683   28.2235  -71.5727 H         1 UNK         0.0847 
     91 H91       -72.3152   26.6458  -74.7942 H         1 UNK         0.3141 
     92 H92       -70.3721   24.3205  -76.6650 H         1 UNK         0.0743 
     93 H93       -72.1270   23.6339  -74.2545 H         1 UNK         0.0784 
     94 H94       -71.8025   22.5691  -75.6213 H         1 UNK         0.0784 
     95 H95       -70.4972   23.0541  -74.5512 H         1 UNK         0.0784 
     96 H96       -73.2018   24.5397  -76.3757 H         1 UNK         0.3213 
     97 H97       -73.5709   26.7014  -79.2389 H         1 UNK         0.0855 
     98 H98       -74.1868   23.7623  -78.6190 H         1 UNK         0.0814 
     99 H99       -73.2461   24.3463  -79.9854 H         1 UNK         0.0814 
    100 H100      -74.9533   24.7441  -79.8628 H         1 UNK         0.0814 
    101 H101      -75.3806   25.4774  -77.3064 H         1 UNK         0.3105 
    102 H102      -75.8715   28.4862  -75.4633 H         1 UNK         0.0547 
    103 H103      -77.4825   28.7831  -77.2514 H         1 UNK         0.0837 
    104 H104      -77.6778   27.0548  -77.4695 H         1 UNK         0.0837 
    105 H105      -78.2726   27.8318  -76.0049 H         1 UNK         0.0837 
    106 H106      -77.0025   25.8923  -75.1579 H         1 UNK         0.3020 
    107 H107      -74.2112   24.3852  -73.6277 H         1 UNK         0.1245 
    108 H108      -75.0019   25.7290  -71.6269 H         1 UNK         0.0781 
    109 H109      -75.1379   24.0047  -71.5591 H         1 UNK         0.0781 
    110 H110      -78.3243   26.5752  -70.1751 H         1 UNK         0.0836 
    111 H111      -76.5868   26.6868  -70.0934 H         1 UNK         0.0836 
    112 H112      -76.9908   23.6318  -73.8919 H         1 UNK         0.3022 
    113 H113      -76.3100   21.8901  -76.9968 H         1 UNK         0.0747 
    114 H114      -77.6270   20.2777  -75.6762 H         1 UNK         0.0793 
    115 H115      -76.0516   20.4870  -74.9323 H         1 UNK         0.0793 
    116 H116      -77.4619   21.2606  -74.2223 H         1 UNK         0.0793 
    117 H117      -78.8223   22.5579  -75.8809 H         1 UNK         0.3047 
    118 H118      -79.4497   25.5731  -77.5859 H         1 UNK         0.0822 
    119 H119      -81.1680   24.3207  -78.8468 H         1 UNK         0.0807 
    120 H120      -80.3663   22.7909  -78.4844 H         1 UNK         0.0807 
    121 H121      -79.5780   23.9831  -79.5081 H         1 UNK         0.0807 
    122 H122      -81.2792   23.8148  -76.3873 H         1 UNK         0.2946 
    123 H123      -82.1262   24.0718  -74.4311 H         1 UNK         0.1144 
    124 H124      -81.6286   23.8216  -72.0530 H         1 UNK         0.0793 
    125 H125      -80.1679   24.7951  -72.1970 H         1 UNK         0.0793 
    126 H126      -80.2518   23.2127  -72.9579 H         1 UNK         0.0793 
    127 H127      -82.0352   26.2803  -72.6931 H         1 UNK         0.2896 
@<TRIPOS>BOND
     1    1    2 1    
     2    1   67 1    
     3    1   68 1    
     4    1   69 1    
     5    2    3 2    
     6    2    4 am   BACKBONE|DICT|INTERRES
     7    4    5 1    
     8    4   70 1    
     9    5    6 1    
    10    5   65 1    
    11    5   71 1    
    12    6    7 1    
    13    6   72 1    
    14    6   73 1    
    15    7    8 1    
    16    8    9 1    
    17    8   74 1    
    18    8   75 1    
    19    9   10 ar   
    20    9   14 ar   
    21   10   11 ar   
    22   10   76 1    
    23   11   12 ar   
    24   11   48 1    
    25   12   13 ar   
    26   12   77 1    
    27   13   14 ar   
    28   13   15 1    
    29   14   78 1    
    30   15   16 1    
    31   15   79 1    
    32   15   80 1    
    33   16   17 1    
    34   17   18 1    
    35   17   81 1    
    36   17   82 1    
    37   18   19 1    
    38   18   22 1    
    39   18   83 1    
    40   19   20 am   BACKBONE|DICT|INTERRES
    41   19   21 2    
    42   20   84 1    
    43   20   85 1    
    44   22   23 am   BACKBONE|DICT|INTERRES
    45   22   86 1    
    46   23   24 2    
    47   23   25 1    
    48   25   26 1    
    49   25   27 1    
    50   25   87 1    
    51   26   88 1    
    52   26   89 1    
    53   26   90 1    
    54   27   28 am   BACKBONE|DICT|INTERRES
    55   27   91 1    
    56   28   29 2    
    57   28   30 1    
    58   30   31 1    
    59   30   32 1    
    60   30   92 1    
    61   31   93 1    
    62   31   94 1    
    63   31   95 1    
    64   32   33 am   BACKBONE|DICT|INTERRES
    65   32   96 1    
    66   33   34 2    
    67   33   35 1    
    68   35   36 1    
    69   35   37 1    
    70   35   97 1    
    71   36   98 1    
    72   36   99 1    
    73   36  100 1    
    74   37   38 am   BACKBONE|DICT|INTERRES
    75   37  101 1    
    76   38   39 2    
    77   38   40 1    
    78   40   41 1    
    79   40   42 1    
    80   40  102 1    
    81   41  103 1    
    82   41  104 1    
    83   41  105 1    
    84   42   43 am   BACKBONE|DICT|INTERRES
    85   42  106 1    
    86   43   44 2    
    87   43   45 1    
    88   45   46 1    
    89   45   49 1    
    90   45  107 1    
    91   46   47 1    
    92   46  108 1    
    93   46  109 1    
    94   47   48 1    
    95   48  110 1    
    96   48  111 1    
    97   49   50 am   BACKBONE|DICT|INTERRES
    98   49  112 1    
    99   50   51 2    
   100   50   52 1    
   101   52   53 1    
   102   52   54 1    
   103   52  113 1    
   104   53  114 1    
   105   53  115 1    
   106   53  116 1    
   107   54   55 am   BACKBONE|DICT|INTERRES
   108   54  117 1    
   109   55   56 2    
   110   55   57 1    
   111   57   58 1    
   112   57   59 1    
   113   57  118 1    
   114   58  119 1    
   115   58  120 1    
   116   58  121 1    
   117   59   60 am   BACKBONE|DICT|INTERRES
   118   59  122 1    
   119   60   61 2    
   120   60   62 1    
   121   62   63 1    
   122   62   64 1    
   123   62  123 1    
   124   63  124 1    
   125   63  125 1    
   126   63  126 1    
   127   64   65 am   BACKBONE|DICT|INTERRES
   128   64  127 1    
   129   65   66 2    
@<TRIPOS>SUBSTRUCTURE
     1 UNK         1 GROUP             0       ****    0 ROOT    
