@<TRIPOS>MOLECULE
3R135
127   129    1
SMALL
USER_CHARGES


@<TRIPOS>ATOM
      1 CA        -81.0521   32.0491  -74.7806 C.3       0 UNK        -0.1998 
      2 C         -80.2610   30.7556  -74.6597 C.2       0 UNK         0.4909 
      3 O         -79.1760   30.6490  -75.2299 O.2       0 UNK        -0.5240 
      4 N         -80.7988   29.7760  -73.9203 N.am      1 UNK        -0.4739 
      5 CA        -80.1817   28.4644  -73.6714 C.3       1 UNK         0.0864 
      6 C6        -80.9207   27.6775  -72.5568 C.3       11 UNK        -0.0881 
      7 S7        -81.1210   28.6387  -71.0161 S.3       11 UNK        -0.2682 
      8 C8        -80.1345   27.6741  -69.8208 C.3       11 UNK         0.0289 
      9 C9        -78.6456   27.5825  -70.1500 C.ar      11 UNK        -0.0687 
     10 C10       -77.9500   26.4079  -69.8475 C.ar      11 UNK        -0.0823 
     11 C11       -76.5814   26.2975  -70.1130 C.ar      11 UNK        -0.0830 
     12 C12       -75.9051   27.3743  -70.6955 C.ar      11 UNK        -0.1021 
     13 C13       -76.5892   28.5510  -71.0107 C.ar      11 UNK        -0.0753 
     14 C14       -77.9517   28.6560  -70.7199 C.ar      11 UNK        -0.0933 
     15 C15       -75.8677   29.7082  -71.6786 C.3       11 UNK         0.0166 
     16 S16       -75.9029   29.5208  -73.4875 S.3       11 UNK        -0.2615 
     17 C17       -75.7127   31.2550  -74.0354 C.3       11 UNK        -0.0865 
     18 CA        -74.2588   31.6567  -74.3991 C.3       10 UNK         0.0862 
     19 C         -73.3673   31.8854  -73.1410 C.2       10 UNK         0.5551 
     20 N         -72.2065   31.2537  -73.0084 N.am      10 UNK        -0.7319 
     21 O         -73.7347   32.6678  -72.2679 O.2       10 UNK        -0.5018 
     22 N         -73.6934   30.7478  -75.4041 N.am      10 UNK        -0.4509 
     23 C         -72.7218   31.0539  -76.2705 C.2       10 UNK         0.4899 
     24 O         -72.2491   32.1842  -76.4015 O.2       10 UNK        -0.4839 
     25 CA        -72.1866   29.8818  -77.1162 C.3       9 UNK         0.0222 
     26 CB        -70.8459   30.2028  -77.8100 C.3       9 UNK        -0.1966 
     27 N         -72.0915   28.6268  -76.3567 N.am      9 UNK        -0.4218 
     28 C         -71.3675   28.4034  -75.2452 C.2       9 UNK         0.5020 
     29 O         -70.6907   29.2707  -74.6908 O.2       9 UNK        -0.5274 
     30 CA        -71.4205   26.9989  -74.6089 C.3       8 UNK         0.0270 
     31 CB        -72.1490   27.0617  -73.2544 C.3       8 UNK        -0.1976 
     32 N         -72.0637   25.9887  -75.4541 N.am      8 UNK        -0.4313 
     33 C         -71.5447   25.4890  -76.5876 C.2       8 UNK         0.5041 
     34 O         -70.4000   25.7314  -76.9716 O.2       8 UNK        -0.5577 
     35 CA        -72.4531   24.6058  -77.4707 C.3       7 UNK         0.0284 
     36 CB        -72.0866   23.1224  -77.3020 C.3       7 UNK        -0.1958 
     37 N         -73.8883   24.7710  -77.2191 N.am      7 UNK        -0.4454 
     38 C         -74.5794   25.9175  -77.3054 C.2       7 UNK         0.5089 
     39 O         -74.1031   26.9696  -77.7329 O.2       7 UNK        -0.5125 
     40 CA        -76.0153   25.9117  -76.7445 C.3       6 UNK         0.0408 
     41 CB        -77.0306   25.8575  -77.8950 C.3       6 UNK        -0.1791 
     42 N         -76.2922   24.8363  -75.7752 N.am      6 UNK        -0.4762 
     43 C         -75.6175   24.6463  -74.6254 C.2       6 UNK         0.5007 
     44 O         -74.6659   25.3548  -74.2983 O.2       6 UNK        -0.5032 
     45 CA        -76.0070   23.4601  -73.7092 C.3       5 UNK         0.0783 
     46 C46       -76.4585   23.9301  -72.3023 C.3       11 UNK        -0.0857 
     47 S47       -75.0363   24.2423  -71.2012 S.3       11 UNK        -0.2512 
     48 C48       -75.8385   25.0148  -69.7606 C.3       11 UNK         0.0225 
     49 N         -76.9943   22.5601  -74.3094 N.am      5 UNK        -0.4615 
     50 C         -76.7320   21.6492  -75.2563 C.2       4 UNK         0.5053 
     51 O         -75.6063   21.4431  -75.7102 O.2       4 UNK        -0.5105 
     52 CA        -77.9324   20.8547  -75.8119 C.3       4 UNK         0.0263 
     53 CB        -78.0388   19.4894  -75.1138 C.3       4 UNK        -0.1981 
     54 N         -79.2219   21.5548  -75.7076 N.am      4 UNK        -0.4224 
     55 C         -79.4905   22.7405  -76.2727 C.2       3 UNK         0.4895 
     56 O         -78.6685   23.3549  -76.9552 O.2       3 UNK        -0.5091 
     57 CA        -80.8735   23.3596  -76.0098 C.3       3 UNK         0.0250 
     58 CB        -81.3781   23.1290  -74.5709 C.3       3 UNK        -0.1996 
     59 N         -80.7810   24.7954  -76.2557 N.am      3 UNK        -0.4254 
     60 C         -81.6587   25.5597  -76.9079 C.2       2 UNK         0.5004 
     61 O         -82.7452   25.1536  -77.3264 O.2       2 UNK        -0.5226 
     62 CA        -81.2428   27.0325  -77.1076 C.3       2 UNK         0.0269 
     63 CB        -82.2283   27.8101  -78.0002 C.3       2 UNK        -0.1926 
     64 N         -81.0932   27.7513  -75.8385 N.am      2 UNK        -0.4687 
     65 C         -80.0984   27.6038  -74.9490 C.2       1 UNK         0.5165 
     66 O         -79.1580   26.8229  -75.0999 O.2       1 UNK        -0.5079 
     67 H67       -80.4644   32.8842  -74.4001 H         1 UNK         0.0900 
     68 H68       -81.9869   32.0100  -74.2216 H         1 UNK         0.0900 
     69 H69       -81.2893   32.2471  -75.8255 H         1 UNK         0.0900 
     70 H70       -81.6787   29.9348  -73.4498 H         1 UNK         0.2959 
     71 H71       -79.1539   28.6412  -73.3456 H         1 UNK         0.1079 
     72 H72       -80.3913   26.7480  -72.3370 H         1 UNK         0.0837 
     73 H73       -81.9175   27.3825  -72.8910 H         1 UNK         0.0837 
     74 H74       -80.2408   28.1315  -68.8364 H         1 UNK         0.0685 
     75 H75       -80.5703   26.6765  -69.7458 H         1 UNK         0.0685 
     76 H76       -78.4761   25.5776  -69.3960 H         1 UNK         0.1434 
     77 H77       -74.8503   27.2889  -70.9196 H         1 UNK         0.1329 
     78 H78       -78.4735   29.5735  -70.9543 H         1 UNK         0.1335 
     79 H79       -76.3360   30.6490  -71.3860 H         1 UNK         0.0680 
     80 H80       -74.8318   29.7592  -71.3397 H         1 UNK         0.0680 
     81 H81       -76.3433   31.3782  -74.9175 H         1 UNK         0.1032 
     82 H82       -76.1360   31.9367  -73.2958 H         1 UNK         0.1032 
     83 H83       -74.3263   32.6406  -74.8673 H         1 UNK         0.0461 
     84 H84       -71.8596   30.6259  -73.7243 H         1 UNK         0.3453 
     85 H85       -71.6487   31.4270  -72.1880 H         1 UNK         0.3453 
     86 H86       -74.0137   29.7917  -75.3497 H         1 UNK         0.2984 
     87 H87       -72.9281   29.7073  -77.8971 H         1 UNK         0.0554 
     88 H88       -70.9455   31.0596  -78.4775 H         1 UNK         0.0847 
     89 H89       -70.5003   29.3627  -78.4124 H         1 UNK         0.0847 
     90 H90       -70.0637   30.4423  -77.0888 H         1 UNK         0.0847 
     91 H91       -72.6556   27.8657  -76.7251 H         1 UNK         0.3141 
     92 H92       -70.3905   26.6838  -74.4299 H         1 UNK         0.0743 
     93 H93       -73.1735   27.4215  -73.3632 H         1 UNK         0.0784 
     94 H94       -72.1889   26.0829  -72.7757 H         1 UNK         0.0784 
     95 H95       -71.6405   27.7384  -72.5664 H         1 UNK         0.0784 
     96 H96       -73.0079   25.7206  -75.1824 H         1 UNK         0.3213 
     97 H97       -72.2687   24.8922  -78.5081 H         1 UNK         0.0855 
     98 H98       -72.2803   22.7721  -76.2872 H         1 UNK         0.0814 
     99 H99       -71.0285   22.9551  -77.5085 H         1 UNK         0.0814 
    100 H100      -72.6520   22.4920  -77.9887 H         1 UNK         0.0814 
    101 H101      -74.3763   23.9666  -76.8507 H         1 UNK         0.3105 
    102 H102      -76.1557   26.8578  -76.2173 H         1 UNK         0.0547 
    103 H103      -76.8622   26.6680  -78.6054 H         1 UNK         0.0837 
    104 H104      -76.9651   24.9192  -78.4470 H         1 UNK         0.0837 
    105 H105      -78.0501   25.9607  -77.5263 H         1 UNK         0.0837 
    106 H106      -77.0586   24.2130  -76.0083 H         1 UNK         0.3020 
    107 H107      -75.0927   22.8738  -73.5866 H         1 UNK         0.1245 
    108 H108      -77.0916   24.8172  -72.3691 H         1 UNK         0.0781 
    109 H109      -77.0648   23.1628  -71.8179 H         1 UNK         0.0781 
    110 H110      -75.0765   25.2425  -69.0141 H         1 UNK         0.0836 
    111 H111      -76.5089   24.2869  -69.3010 H         1 UNK         0.0836 
    112 H112      -77.9481   22.6659  -73.9983 H         1 UNK         0.3022 
    113 H113      -77.7386   20.6821  -76.8728 H         1 UNK         0.0747 
    114 H114      -78.8190   18.8733  -75.5616 H         1 UNK         0.0793 
    115 H115      -77.1035   18.9339  -75.1979 H         1 UNK         0.0793 
    116 H116      -78.2605   19.5947  -74.0509 H         1 UNK         0.0793 
    117 H117      -79.9414   21.1019  -75.1623 H         1 UNK         0.3047 
    118 H118      -81.5711   22.9053  -76.7163 H         1 UNK         0.0822 
    119 H119      -82.3189   23.6525  -74.3984 H         1 UNK         0.0807 
    120 H120      -80.6625   23.4862  -73.8291 H         1 UNK         0.0807 
    121 H121      -81.5666   22.0735  -74.3733 H         1 UNK         0.0807 
    122 H122      -79.9158   25.2353  -75.9525 H         1 UNK         0.2946 
    123 H123      -80.2751   27.0257  -77.6139 H         1 UNK         0.1144 
    124 H124      -81.8776   28.8252  -78.1876 H         1 UNK         0.0793 
    125 H125      -83.2192   27.8746  -77.5487 H         1 UNK         0.0793 
    126 H126      -82.3427   27.3252  -78.9707 H         1 UNK         0.0793 
    127 H127      -81.8240   28.4096  -75.6108 H         1 UNK         0.2896 
@<TRIPOS>BOND
     1    1    2 1    
     2    1   67 1    
     3    1   68 1    
     4    1   69 1    
     5    2    3 2    
     6    2    4 am   BACKBONE|DICT|INTERRES
     7    4    5 1    
     8    4   70 1    
     9    5    6 1    
    10    5   65 1    
    11    5   71 1    
    12    6    7 1    
    13    6   72 1    
    14    6   73 1    
    15    7    8 1    
    16    8    9 1    
    17    8   74 1    
    18    8   75 1    
    19    9   10 ar   
    20    9   14 ar   
    21   10   11 ar   
    22   10   76 1    
    23   11   12 ar   
    24   11   48 1    
    25   12   13 ar   
    26   12   77 1    
    27   13   14 ar   
    28   13   15 1    
    29   14   78 1    
    30   15   16 1    
    31   15   79 1    
    32   15   80 1    
    33   16   17 1    
    34   17   18 1    
    35   17   81 1    
    36   17   82 1    
    37   18   19 1    
    38   18   22 1    
    39   18   83 1    
    40   19   20 am   BACKBONE|DICT|INTERRES
    41   19   21 2    
    42   20   84 1    
    43   20   85 1    
    44   22   23 am   BACKBONE|DICT|INTERRES
    45   22   86 1    
    46   23   24 2    
    47   23   25 1    
    48   25   26 1    
    49   25   27 1    
    50   25   87 1    
    51   26   88 1    
    52   26   89 1    
    53   26   90 1    
    54   27   28 am   BACKBONE|DICT|INTERRES
    55   27   91 1    
    56   28   29 2    
    57   28   30 1    
    58   30   31 1    
    59   30   32 1    
    60   30   92 1    
    61   31   93 1    
    62   31   94 1    
    63   31   95 1    
    64   32   33 am   BACKBONE|DICT|INTERRES
    65   32   96 1    
    66   33   34 2    
    67   33   35 1    
    68   35   36 1    
    69   35   37 1    
    70   35   97 1    
    71   36   98 1    
    72   36   99 1    
    73   36  100 1    
    74   37   38 am   BACKBONE|DICT|INTERRES
    75   37  101 1    
    76   38   39 2    
    77   38   40 1    
    78   40   41 1    
    79   40   42 1    
    80   40  102 1    
    81   41  103 1    
    82   41  104 1    
    83   41  105 1    
    84   42   43 am   BACKBONE|DICT|INTERRES
    85   42  106 1    
    86   43   44 2    
    87   43   45 1    
    88   45   46 1    
    89   45   49 1    
    90   45  107 1    
    91   46   47 1    
    92   46  108 1    
    93   46  109 1    
    94   47   48 1    
    95   48  110 1    
    96   48  111 1    
    97   49   50 am   BACKBONE|DICT|INTERRES
    98   49  112 1    
    99   50   51 2    
   100   50   52 1    
   101   52   53 1    
   102   52   54 1    
   103   52  113 1    
   104   53  114 1    
   105   53  115 1    
   106   53  116 1    
   107   54   55 am   BACKBONE|DICT|INTERRES
   108   54  117 1    
   109   55   56 2    
   110   55   57 1    
   111   57   58 1    
   112   57   59 1    
   113   57  118 1    
   114   58  119 1    
   115   58  120 1    
   116   58  121 1    
   117   59   60 am   BACKBONE|DICT|INTERRES
   118   59  122 1    
   119   60   61 2    
   120   60   62 1    
   121   62   63 1    
   122   62   64 1    
   123   62  123 1    
   124   63  124 1    
   125   63  125 1    
   126   63  126 1    
   127   64   65 am   BACKBONE|DICT|INTERRES
   128   64  127 1    
   129   65   66 2    
@<TRIPOS>SUBSTRUCTURE
     1 UNK         1 GROUP             0       ****    0 ROOT    
