@<TRIPOS>MOLECULE
3R135
127   129    1
SMALL
USER_CHARGES


@<TRIPOS>ATOM
      1 CA        -81.7440   24.8770  -70.0509 C.3       0 UNK        -0.1998 
      2 C         -82.4168   25.7766  -71.0770 C.2       0 UNK         0.4909 
      3 O         -83.5378   26.2344  -70.8509 O.2       0 UNK        -0.5240 
      4 N         -81.7356   26.0302  -72.1979 N.am      1 UNK        -0.4739 
      5 CA        -82.2363   26.8033  -73.3385 C.3       1 UNK         0.0864 
      6 C6        -81.1138   27.6902  -73.9377 C.3       11 UNK        -0.0881 
      7 S7        -80.5166   28.9538  -72.7611 S.3       11 UNK        -0.2682 
      8 C8        -78.9320   28.2428  -72.2134 C.3       11 UNK         0.0289 
      9 C9        -77.7522   28.7336  -73.0437 C.ar      11 UNK        -0.0687 
     10 C10       -77.5733   28.2941  -74.3583 C.ar      11 UNK        -0.0823 
     11 C11       -76.4533   28.6798  -75.0967 C.ar      11 UNK        -0.0830 
     12 C12       -75.5182   29.5459  -74.5222 C.ar      11 UNK        -0.1021 
     13 C13       -75.7041   30.0285  -73.2229 C.ar      11 UNK        -0.0753 
     14 C14       -76.8175   29.6119  -72.4865 C.ar      11 UNK        -0.0933 
     15 C15       -74.7340   31.0390  -72.6291 C.3       11 UNK         0.0166 
     16 S16       -73.6519   30.3237  -71.3510 S.3       11 UNK        -0.2615 
     17 C17       -72.4863   29.2979  -72.3101 C.3       11 UNK        -0.0865 
     18 CA        -71.3218   30.1309  -72.9205 C.3       10 UNK         0.0862 
     19 C         -69.9786   29.3421  -72.9711 C.2       10 UNK         0.5551 
     20 N         -69.2846   29.2530  -74.1006 N.am      10 UNK        -0.7319 
     21 O         -69.5398   28.8166  -71.9511 O.2       10 UNK        -0.5018 
     22 N         -71.7105   30.6970  -74.2197 N.am      10 UNK        -0.4509 
     23 C         -71.3158   31.8870  -74.6916 C.2       10 UNK         0.4899 
     24 O         -70.6585   32.6958  -74.0348 O.2       10 UNK        -0.4839 
     25 CA        -71.7266   32.2375  -76.1401 C.3       9 UNK         0.0222 
     26 CB        -70.7488   33.2281  -76.8079 C.3       9 UNK        -0.1966 
     27 N         -71.9421   31.0645  -77.0002 N.am      9 UNK        -0.4218 
     28 C         -71.0528   30.1029  -77.2875 C.2       9 UNK         0.5020 
     29 O         -69.8840   30.0935  -76.8937 O.2       9 UNK        -0.5274 
     30 CA        -71.5806   28.9156  -78.1102 C.3       8 UNK         0.0270 
     31 CB        -70.8854   28.8460  -79.4798 C.3       8 UNK        -0.1976 
     32 N         -71.3983   27.6449  -77.4025 N.am      8 UNK        -0.4313 
     33 C         -71.9035   27.3628  -76.1944 C.2       8 UNK         0.5041 
     34 O         -72.5959   28.1474  -75.5377 O.2       8 UNK        -0.5577 
     35 CA        -71.5703   25.9828  -75.6156 C.3       7 UNK         0.0284 
     36 CB        -70.1448   25.9729  -75.0255 C.3       7 UNK        -0.1958 
     37 N         -72.5684   25.6794  -74.5938 N.am      7 UNK        -0.4454 
     38 C         -72.6803   24.5574  -73.8745 C.2       7 UNK         0.5089 
     39 O         -71.9373   23.5820  -73.9883 O.2       7 UNK        -0.5125 
     40 CA        -73.8338   24.5139  -72.8586 C.3       6 UNK         0.0408 
     41 CB        -73.5187   25.3859  -71.6318 C.3       6 UNK        -0.1791 
     42 N         -75.1052   24.9375  -73.4475 N.am      6 UNK        -0.4762 
     43 C         -75.8243   24.1977  -74.3033 C.2       6 UNK         0.5007 
     44 O         -75.5144   23.0568  -74.6569 O.2       6 UNK        -0.5032 
     45 CA        -77.1076   24.8417  -74.8582 C.3       5 UNK         0.0783 
     46 C46       -76.9418   25.4018  -76.2973 C.3       11 UNK        -0.0857 
     47 S47       -75.5168   26.5186  -76.5614 S.3       11 UNK        -0.2512 
     48 C48       -76.2682   28.1760  -76.5208 C.3       11 UNK         0.0225 
     49 N         -78.1648   23.8344  -74.8227 N.am      5 UNK        -0.4615 
     50 C         -79.1259   23.7483  -73.8994 C.2       4 UNK         0.5053 
     51 O         -79.3226   24.5944  -73.0245 O.2       4 UNK        -0.5105 
     52 CA        -80.0300   22.5099  -73.9986 C.3       4 UNK         0.0263 
     53 CB        -80.8600   22.2720  -72.7233 C.3       4 UNK        -0.1981 
     54 N         -80.9246   22.6270  -75.1512 N.am      4 UNK        -0.4224 
     55 C         -80.6100   22.2527  -76.4007 C.2       3 UNK         0.4895 
     56 O         -79.5178   21.7698  -76.7041 O.2       3 UNK        -0.5091 
     57 CA        -81.6738   22.4260  -77.5025 C.3       3 UNK         0.0250 
     58 CB        -82.3654   21.0834  -77.7911 C.3       3 UNK        -0.1996 
     59 N         -82.6931   23.4284  -77.1855 N.am      3 UNK        -0.4254 
     60 C         -82.5003   24.7525  -77.2432 C.2       2 UNK         0.5004 
     61 O         -81.4517   25.2745  -77.6253 O.2       2 UNK        -0.5226 
     62 CA        -83.6484   25.6609  -76.7548 C.3       2 UNK         0.0269 
     63 CB        -84.9976   24.9340  -76.5440 C.3       2 UNK        -0.1926 
     64 N         -83.2511   26.3881  -75.5411 N.am      2 UNK        -0.4687 
     65 C         -82.8120   25.8377  -74.3980 C.2       1 UNK         0.5165 
     66 O         -82.8261   24.6204  -74.1918 O.2       1 UNK        -0.5079 
     67 H67       -80.7399   24.5879  -70.3624 H         1 UNK         0.0900 
     68 H68       -82.3292   23.9692  -69.9071 H         1 UNK         0.0900 
     69 H69       -81.6667   25.3907  -69.0931 H         1 UNK         0.0900 
     70 H70       -80.8482   25.5608  -72.3604 H         1 UNK         0.2959 
     71 H71       -83.0558   27.4505  -73.0185 H         1 UNK         0.1079 
     72 H72       -80.2917   27.0600  -74.2749 H         1 UNK         0.0837 
     73 H73       -81.4610   28.2301  -74.8198 H         1 UNK         0.0837 
     74 H74       -78.7881   28.5071  -71.1647 H         1 UNK         0.0685 
     75 H75       -78.9757   27.1538  -72.2400 H         1 UNK         0.0685 
     76 H76       -78.2978   27.6387  -74.8137 H         1 UNK         0.1434 
     77 H77       -74.6539   29.8563  -75.0931 H         1 UNK         0.1329 
     78 H78       -76.9533   29.9756  -71.4770 H         1 UNK         0.1335 
     79 H79       -74.1335   31.5075  -73.4080 H         1 UNK         0.0680 
     80 H80       -75.3075   31.8483  -72.1750 H         1 UNK         0.0680 
     81 H81       -72.1100   28.5474  -71.6128 H         1 UNK         0.1032 
     82 H82       -73.0255   28.7374  -73.0735 H         1 UNK         0.1032 
     83 H83       -71.1150   30.9551  -72.2353 H         1 UNK         0.0461 
     84 H84       -68.4101   28.7542  -74.0973 H         1 UNK         0.3453 
     85 H85       -69.6167   29.6752  -74.9611 H         1 UNK         0.3453 
     86 H86       -72.1840   30.0493  -74.8414 H         1 UNK         0.2984 
     87 H87       -72.6946   32.7345  -76.0615 H         1 UNK         0.0554 
     88 H88       -71.0642   33.4761  -77.8213 H         1 UNK         0.0847 
     89 H89       -69.7373   32.8238  -76.8609 H         1 UNK         0.0847 
     90 H90       -70.6950   34.1640  -76.2505 H         1 UNK         0.0847 
     91 H91       -72.8822   30.9578  -77.3564 H         1 UNK         0.3141 
     92 H92       -72.6522   29.0445  -78.2769 H         1 UNK         0.0743 
     93 H93       -69.8116   28.6813  -79.3795 H         1 UNK         0.0784 
     94 H94       -71.2936   28.0427  -80.0935 H         1 UNK         0.0784 
     95 H95       -71.0213   29.7762  -80.0334 H         1 UNK         0.0784 
     96 H96       -70.8125   26.9587  -77.8555 H         1 UNK         0.3213 
     97 H97       -71.6501   25.2411  -76.4127 H         1 UNK         0.0855 
     98 H98       -70.0884   26.5610  -74.1100 H         1 UNK         0.0814 
     99 H99       -69.4174   26.3855  -75.7257 H         1 UNK         0.0814 
    100 H100      -69.8161   24.9614  -74.7886 H         1 UNK         0.0814 
    101 H101      -73.2384   26.4296  -74.4680 H         1 UNK         0.3105 
    102 H102      -73.9390   23.4820  -72.5162 H         1 UNK         0.0547 
    103 H103      -72.5630   25.1041  -71.1876 H         1 UNK         0.0837 
    104 H104      -73.4602   26.4437  -71.8876 H         1 UNK         0.0837 
    105 H105      -74.2792   25.2712  -70.8594 H         1 UNK         0.0837 
    106 H106      -75.4213   25.8695  -73.2192 H         1 UNK         0.3020 
    107 H107      -77.3754   25.6589  -74.1905 H         1 UNK         0.1245 
    108 H108      -77.8586   25.9085  -76.6023 H         1 UNK         0.0781 
    109 H109      -76.8232   24.5745  -76.9996 H         1 UNK         0.0781 
    110 H110      -77.2202   28.1734  -77.0535 H         1 UNK         0.0836 
    111 H111      -75.6185   28.8582  -77.0713 H         1 UNK         0.0836 
    112 H112      -78.0810   23.0814  -75.4948 H         1 UNK         0.3022 
    113 H113      -79.3824   21.6393  -74.1255 H         1 UNK         0.0747 
    114 H114      -80.2141   22.1839  -71.8488 H         1 UNK         0.0793 
    115 H115      -81.5587   23.0846  -72.5302 H         1 UNK         0.0793 
    116 H116      -81.4362   21.3495  -72.7946 H         1 UNK         0.0793 
    117 H117      -81.8003   23.1140  -74.9822 H         1 UNK         0.3047 
    118 H118      -81.1521   22.7402  -78.4094 H         1 UNK         0.0822 
    119 H119      -83.0672   21.1683  -78.6210 H         1 UNK         0.0807 
    120 H120      -82.9134   20.7156  -76.9226 H         1 UNK         0.0807 
    121 H121      -81.6360   20.3190  -78.0634 H         1 UNK         0.0807 
    122 H122      -83.5767   23.0873  -76.8347 H         1 UNK         0.2946 
    123 H123      -83.7949   26.4063  -77.5385 H         1 UNK         0.1144 
    124 H124      -85.3207   24.4308  -77.4565 H         1 UNK         0.0793 
    125 H125      -84.9543   24.1884  -75.7495 H         1 UNK         0.0793 
    126 H126      -85.7820   25.6435  -76.2802 H         1 UNK         0.0793 
    127 H127      -83.2017   27.3927  -75.6391 H         1 UNK         0.2896 
@<TRIPOS>BOND
     1    1    2 1    
     2    1   67 1    
     3    1   68 1    
     4    1   69 1    
     5    2    3 2    
     6    2    4 am   BACKBONE|DICT|INTERRES
     7    4    5 1    
     8    4   70 1    
     9    5    6 1    
    10    5   65 1    
    11    5   71 1    
    12    6    7 1    
    13    6   72 1    
    14    6   73 1    
    15    7    8 1    
    16    8    9 1    
    17    8   74 1    
    18    8   75 1    
    19    9   10 ar   
    20    9   14 ar   
    21   10   11 ar   
    22   10   76 1    
    23   11   12 ar   
    24   11   48 1    
    25   12   13 ar   
    26   12   77 1    
    27   13   14 ar   
    28   13   15 1    
    29   14   78 1    
    30   15   16 1    
    31   15   79 1    
    32   15   80 1    
    33   16   17 1    
    34   17   18 1    
    35   17   81 1    
    36   17   82 1    
    37   18   19 1    
    38   18   22 1    
    39   18   83 1    
    40   19   20 am   BACKBONE|DICT|INTERRES
    41   19   21 2    
    42   20   84 1    
    43   20   85 1    
    44   22   23 am   BACKBONE|DICT|INTERRES
    45   22   86 1    
    46   23   24 2    
    47   23   25 1    
    48   25   26 1    
    49   25   27 1    
    50   25   87 1    
    51   26   88 1    
    52   26   89 1    
    53   26   90 1    
    54   27   28 am   BACKBONE|DICT|INTERRES
    55   27   91 1    
    56   28   29 2    
    57   28   30 1    
    58   30   31 1    
    59   30   32 1    
    60   30   92 1    
    61   31   93 1    
    62   31   94 1    
    63   31   95 1    
    64   32   33 am   BACKBONE|DICT|INTERRES
    65   32   96 1    
    66   33   34 2    
    67   33   35 1    
    68   35   36 1    
    69   35   37 1    
    70   35   97 1    
    71   36   98 1    
    72   36   99 1    
    73   36  100 1    
    74   37   38 am   BACKBONE|DICT|INTERRES
    75   37  101 1    
    76   38   39 2    
    77   38   40 1    
    78   40   41 1    
    79   40   42 1    
    80   40  102 1    
    81   41  103 1    
    82   41  104 1    
    83   41  105 1    
    84   42   43 am   BACKBONE|DICT|INTERRES
    85   42  106 1    
    86   43   44 2    
    87   43   45 1    
    88   45   46 1    
    89   45   49 1    
    90   45  107 1    
    91   46   47 1    
    92   46  108 1    
    93   46  109 1    
    94   47   48 1    
    95   48  110 1    
    96   48  111 1    
    97   49   50 am   BACKBONE|DICT|INTERRES
    98   49  112 1    
    99   50   51 2    
   100   50   52 1    
   101   52   53 1    
   102   52   54 1    
   103   52  113 1    
   104   53  114 1    
   105   53  115 1    
   106   53  116 1    
   107   54   55 am   BACKBONE|DICT|INTERRES
   108   54  117 1    
   109   55   56 2    
   110   55   57 1    
   111   57   58 1    
   112   57   59 1    
   113   57  118 1    
   114   58  119 1    
   115   58  120 1    
   116   58  121 1    
   117   59   60 am   BACKBONE|DICT|INTERRES
   118   59  122 1    
   119   60   61 2    
   120   60   62 1    
   121   62   63 1    
   122   62   64 1    
   123   62  123 1    
   124   63  124 1    
   125   63  125 1    
   126   63  126 1    
   127   64   65 am   BACKBONE|DICT|INTERRES
   128   64  127 1    
   129   65   66 2    
@<TRIPOS>SUBSTRUCTURE
     1 UNK         1 GROUP             0       ****    0 ROOT    
