@<TRIPOS>MOLECULE
3R135
127   129    1
SMALL
USER_CHARGES


@<TRIPOS>ATOM
      1 CA        -79.3142   30.4968  -75.7533 C.3       0 UNK        -0.1998 
      2 C         -79.6242   29.4021  -74.7451 C.2       0 UNK         0.4909 
      3 O         -78.7908   28.5247  -74.5251 O.2       0 UNK        -0.5240 
      4 N         -80.8122   29.4422  -74.1294 N.am      1 UNK        -0.4739 
      5 CA        -81.2687   28.4795  -73.1203 C.3       1 UNK         0.0864 
      6 C6        -82.3156   29.0960  -72.1532 C.3       11 UNK        -0.0881 
      7 S7        -81.7469   30.6145  -71.3166 S.3       11 UNK        -0.2682 
      8 C8        -81.1075   29.9638  -69.7403 C.3       11 UNK         0.0289 
      9 C9        -79.7193   29.3624  -69.9020 C.ar      11 UNK        -0.0687 
     10 C10       -79.5217   27.9816  -69.8134 C.ar      11 UNK        -0.0823 
     11 C11       -78.2410   27.4411  -69.9615 C.ar      11 UNK        -0.0830 
     12 C12       -77.1541   28.2944  -70.1837 C.ar      11 UNK        -0.1021 
     13 C13       -77.3371   29.6807  -70.2887 C.ar      11 UNK        -0.0753 
     14 C14       -78.6258   30.2000  -70.1383 C.ar      11 UNK        -0.0933 
     15 C15       -76.2023   30.6641  -70.5916 C.3       11 UNK         0.0166 
     16 S16       -74.5226   29.9455  -70.6806 S.3       11 UNK        -0.2615 
     17 C17       -73.8498   30.7210  -72.1930 C.3       11 UNK        -0.0865 
     18 CA        -73.7984   29.7355  -73.3936 C.3       10 UNK         0.0862 
     19 C         -75.1519   29.6542  -74.1574 C.2       10 UNK         0.5551 
     20 N         -76.1465   29.0108  -73.5661 N.am      10 UNK        -0.7319 
     21 O         -75.3120   30.1864  -75.2544 O.2       10 UNK        -0.5018 
     22 N         -72.6608   30.0375  -74.2775 N.am      10 UNK        -0.4509 
     23 C         -72.1050   29.1526  -75.1130 C.2       10 UNK         0.4899 
     24 O         -72.4352   27.9673  -75.1750 O.2       10 UNK        -0.4839 
     25 CA        -70.9600   29.6725  -75.9968 C.3       9 UNK         0.0222 
     26 CB        -69.6600   29.7858  -75.1827 C.3       9 UNK        -0.1966 
     27 N         -70.7399   28.7364  -77.0971 N.am      9 UNK        -0.4218 
     28 C         -71.1510   28.8946  -78.3583 C.2       9 UNK         0.5020 
     29 O         -71.6259   29.9411  -78.8015 O.2       9 UNK        -0.5274 
     30 CA        -71.0511   27.6643  -79.2806 C.3       8 UNK         0.0270 
     31 CB        -69.6040   27.4198  -79.7529 C.3       8 UNK        -0.1976 
     32 N         -71.6619   26.4565  -78.7032 N.am      8 UNK        -0.4313 
     33 C         -71.2669   25.7283  -77.6488 C.2       8 UNK         0.5041 
     34 O         -70.2227   25.9331  -77.0255 O.2       8 UNK        -0.5577 
     35 CA        -72.2558   24.6491  -77.1689 C.3       7 UNK         0.0284 
     36 CB        -71.6457   23.7111  -76.1116 C.3       7 UNK        -0.1958 
     37 N         -73.4468   25.2832  -76.6032 N.am      7 UNK        -0.4454 
     38 C         -74.4436   25.8352  -77.3021 C.2       7 UNK         0.5089 
     39 O         -74.5172   25.7707  -78.5318 O.2       7 UNK        -0.5125 
     40 CA        -75.4952   26.6225  -76.4986 C.3       6 UNK         0.0408 
     41 CB        -76.5896   27.2332  -77.3920 C.3       6 UNK        -0.1791 
     42 N         -76.1382   25.8336  -75.4483 N.am      6 UNK        -0.4762 
     43 C         -75.6058   25.4863  -74.2682 C.2       6 UNK         0.5007 
     44 O         -74.4408   25.7128  -73.9412 O.2       6 UNK        -0.5032 
     45 CA        -76.5439   24.7625  -73.2878 C.3       5 UNK         0.0783 
     46 C46       -77.5409   25.7750  -72.6750 C.3       11 UNK        -0.0857 
     47 S47       -78.6132   25.0692  -71.3807 S.3       11 UNK        -0.2512 
     48 C48       -78.0277   25.9333  -69.8839 C.3       11 UNK         0.0225 
     49 N         -77.2104   23.6502  -73.9669 N.am      5 UNK        -0.4615 
     50 C         -76.6533   22.4506  -74.1803 C.2       4 UNK         0.5053 
     51 O         -75.5433   22.1284  -73.7564 O.2       4 UNK        -0.5105 
     52 CA        -77.4668   21.4282  -74.9958 C.3       4 UNK         0.0263 
     53 CB        -78.2636   20.5091  -74.0558 C.3       4 UNK        -0.1981 
     54 N         -78.3867   22.0553  -75.9468 N.am      4 UNK        -0.4224 
     55 C         -78.0158   22.6679  -77.0810 C.2       3 UNK         0.4895 
     56 O         -76.8612   22.6839  -77.5068 O.2       3 UNK        -0.5091 
     57 CA        -79.1193   23.4154  -77.8564 C.3       3 UNK         0.0250 
     58 CB        -79.7284   22.5080  -78.9372 C.3       3 UNK        -0.1996 
     59 N         -80.1903   23.9408  -76.9971 N.am      3 UNK        -0.4254 
     60 C         -80.0000   24.8537  -76.0353 C.2       2 UNK         0.5004 
     61 O         -78.9041   25.3603  -75.7899 O.2       2 UNK        -0.5226 
     62 CA        -81.2013   25.1954  -75.1505 C.3       2 UNK         0.0269 
     63 CB        -81.4711   24.0531  -74.1496 C.3       2 UNK        -0.1926 
     64 N         -80.9130   26.4349  -74.4322 N.am      2 UNK        -0.4687 
     65 C         -81.8063   27.2016  -73.8016 C.2       1 UNK         0.5165 
     66 O         -83.0122   26.9452  -73.7732 O.2       1 UNK        -0.5079 
     67 H67       -78.3876   31.0020  -75.4806 H         1 UNK         0.0900 
     68 H68       -79.1857   30.0647  -76.7452 H         1 UNK         0.0900 
     69 H69       -80.1072   31.2425  -75.8038 H         1 UNK         0.0900 
     70 H70       -81.4647   30.1805  -74.3507 H         1 UNK         0.2959 
     71 H71       -80.4079   28.1759  -72.5200 H         1 UNK         0.1079 
     72 H72       -82.6137   28.3649  -71.3994 H         1 UNK         0.0837 
     73 H73       -83.2277   29.3526  -72.6956 H         1 UNK         0.0837 
     74 H74       -81.8077   29.2387  -69.3228 H         1 UNK         0.0685 
     75 H75       -81.0557   30.7826  -69.0212 H         1 UNK         0.0685 
     76 H76       -80.3628   27.3244  -69.6391 H         1 UNK         0.1434 
     77 H77       -76.1707   27.8610  -70.2907 H         1 UNK         0.1329 
     78 H78       -78.7850   31.2669  -70.2189 H         1 UNK         0.1335 
     79 H79       -76.1945   31.4452  -69.8301 H         1 UNK         0.0680 
     80 H80       -76.4397   31.1584  -71.5344 H         1 UNK         0.0680 
     81 H81       -72.8397   31.0431  -71.9347 H         1 UNK         0.1032 
     82 H82       -74.3865   31.6378  -72.4437 H         1 UNK         0.1032 
     83 H83       -73.6087   28.7363  -72.9941 H         1 UNK         0.0461 
     84 H84       -77.0456   28.9172  -74.0320 H         1 UNK         0.3453 
     85 H85       -76.0272   28.6422  -72.6377 H         1 UNK         0.3453 
     86 H86       -72.3571   30.9995  -74.3077 H         1 UNK         0.2984 
     87 H87       -71.2295   30.6589  -76.3799 H         1 UNK         0.0554 
     88 H88       -69.7693   30.4930  -74.3597 H         1 UNK         0.0847 
     89 H89       -68.8349   30.1375  -75.8025 H         1 UNK         0.0847 
     90 H90       -69.3688   28.8265  -74.7523 H         1 UNK         0.0847 
     91 H91       -70.4438   27.7979  -76.8329 H         1 UNK         0.3141 
     92 H92       -71.6447   27.8915  -80.1677 H         1 UNK         0.0743 
     93 H93       -69.2157   28.2948  -80.2758 H         1 UNK         0.0784 
     94 H94       -68.9271   27.2155  -78.9231 H         1 UNK         0.0784 
     95 H95       -69.5501   26.5787  -80.4440 H         1 UNK         0.0784 
     96 H96       -72.5873   26.2364  -79.0614 H         1 UNK         0.3213 
     97 H97       -72.5433   24.0451  -78.0323 H         1 UNK         0.0855 
     98 H98       -71.3589   24.2526  -75.2090 H         1 UNK         0.0814 
     99 H99       -70.7517   23.2186  -76.4963 H         1 UNK         0.0814 
    100 H100      -72.3491   22.9298  -75.8229 H         1 UNK         0.0814 
    101 H101      -73.4534   25.4436  -75.5986 H         1 UNK         0.3105 
    102 H102      -74.9658   27.4483  -76.0234 H         1 UNK         0.0547 
    103 H103      -76.1577   27.8804  -78.1562 H         1 UNK         0.0837 
    104 H104      -77.2799   27.8418  -76.8072 H         1 UNK         0.0837 
    105 H105      -77.1702   26.4623  -77.8997 H         1 UNK         0.0837 
    106 H106      -77.1181   25.6057  -75.6114 H         1 UNK         0.3020 
    107 H107      -75.9276   24.3635  -72.4785 H         1 UNK         0.1245 
    108 H108      -78.1888   26.1957  -73.4424 H         1 UNK         0.0781 
    109 H109      -76.9931   26.6212  -72.2658 H         1 UNK         0.0781 
    110 H110      -76.9744   25.6974  -69.7239 H         1 UNK         0.0836 
    111 H111      -78.5609   25.5381  -69.0181 H         1 UNK         0.0836 
    112 H112      -78.0993   23.8659  -74.3953 H         1 UNK         0.3022 
    113 H113      -76.7586   20.8143  -75.5568 H         1 UNK         0.0747 
    114 H114      -78.7933   19.7350  -74.6115 H         1 UNK         0.0793 
    115 H115      -77.6009   20.0037  -73.3516 H         1 UNK         0.0793 
    116 H116      -78.9967   21.0658  -73.4703 H         1 UNK         0.0793 
    117 H117      -79.3634   22.0708  -75.6939 H         1 UNK         0.3047 
    118 H118      -78.6453   24.2662  -78.3510 H         1 UNK         0.0822 
    119 H119      -80.4444   23.0509  -79.5546 H         1 UNK         0.0807 
    120 H120      -80.2409   21.6485  -78.5032 H         1 UNK         0.0807 
    121 H121      -78.9553   22.1235  -79.6043 H         1 UNK         0.0807 
    122 H122      -81.1155   23.5608  -77.1402 H         1 UNK         0.2946 
    123 H123      -82.0732   25.3484  -75.7904 H         1 UNK         0.1144 
    124 H124      -80.6162   23.8832  -73.4938 H         1 UNK         0.0793 
    125 H125      -81.6822   23.1149  -74.6637 H         1 UNK         0.0793 
    126 H126      -82.3335   24.2682  -73.5189 H         1 UNK         0.0793 
    127 H127      -79.9497   26.7557  -74.5018 H         1 UNK         0.2896 
@<TRIPOS>BOND
     1    1    2 1    
     2    1   67 1    
     3    1   68 1    
     4    1   69 1    
     5    2    3 2    
     6    2    4 am   BACKBONE|DICT|INTERRES
     7    4    5 1    
     8    4   70 1    
     9    5    6 1    
    10    5   65 1    
    11    5   71 1    
    12    6    7 1    
    13    6   72 1    
    14    6   73 1    
    15    7    8 1    
    16    8    9 1    
    17    8   74 1    
    18    8   75 1    
    19    9   10 ar   
    20    9   14 ar   
    21   10   11 ar   
    22   10   76 1    
    23   11   12 ar   
    24   11   48 1    
    25   12   13 ar   
    26   12   77 1    
    27   13   14 ar   
    28   13   15 1    
    29   14   78 1    
    30   15   16 1    
    31   15   79 1    
    32   15   80 1    
    33   16   17 1    
    34   17   18 1    
    35   17   81 1    
    36   17   82 1    
    37   18   19 1    
    38   18   22 1    
    39   18   83 1    
    40   19   20 am   BACKBONE|DICT|INTERRES
    41   19   21 2    
    42   20   84 1    
    43   20   85 1    
    44   22   23 am   BACKBONE|DICT|INTERRES
    45   22   86 1    
    46   23   24 2    
    47   23   25 1    
    48   25   26 1    
    49   25   27 1    
    50   25   87 1    
    51   26   88 1    
    52   26   89 1    
    53   26   90 1    
    54   27   28 am   BACKBONE|DICT|INTERRES
    55   27   91 1    
    56   28   29 2    
    57   28   30 1    
    58   30   31 1    
    59   30   32 1    
    60   30   92 1    
    61   31   93 1    
    62   31   94 1    
    63   31   95 1    
    64   32   33 am   BACKBONE|DICT|INTERRES
    65   32   96 1    
    66   33   34 2    
    67   33   35 1    
    68   35   36 1    
    69   35   37 1    
    70   35   97 1    
    71   36   98 1    
    72   36   99 1    
    73   36  100 1    
    74   37   38 am   BACKBONE|DICT|INTERRES
    75   37  101 1    
    76   38   39 2    
    77   38   40 1    
    78   40   41 1    
    79   40   42 1    
    80   40  102 1    
    81   41  103 1    
    82   41  104 1    
    83   41  105 1    
    84   42   43 am   BACKBONE|DICT|INTERRES
    85   42  106 1    
    86   43   44 2    
    87   43   45 1    
    88   45   46 1    
    89   45   49 1    
    90   45  107 1    
    91   46   47 1    
    92   46  108 1    
    93   46  109 1    
    94   47   48 1    
    95   48  110 1    
    96   48  111 1    
    97   49   50 am   BACKBONE|DICT|INTERRES
    98   49  112 1    
    99   50   51 2    
   100   50   52 1    
   101   52   53 1    
   102   52   54 1    
   103   52  113 1    
   104   53  114 1    
   105   53  115 1    
   106   53  116 1    
   107   54   55 am   BACKBONE|DICT|INTERRES
   108   54  117 1    
   109   55   56 2    
   110   55   57 1    
   111   57   58 1    
   112   57   59 1    
   113   57  118 1    
   114   58  119 1    
   115   58  120 1    
   116   58  121 1    
   117   59   60 am   BACKBONE|DICT|INTERRES
   118   59  122 1    
   119   60   61 2    
   120   60   62 1    
   121   62   63 1    
   122   62   64 1    
   123   62  123 1    
   124   63  124 1    
   125   63  125 1    
   126   63  126 1    
   127   64   65 am   BACKBONE|DICT|INTERRES
   128   64  127 1    
   129   65   66 2    
@<TRIPOS>SUBSTRUCTURE
     1 UNK         1 GROUP             0       ****    0 ROOT    
