@<TRIPOS>MOLECULE
3R135
127   129    1
SMALL
USER_CHARGES


@<TRIPOS>ATOM
      1 CA        -83.3001   26.7037  -70.3210 C.3       0 UNK        -0.1998 
      2 C         -83.3733   27.1409  -71.7762 C.2       0 UNK         0.4909 
      3 O         -84.4617   27.1834  -72.3504 O.2       0 UNK        -0.5240 
      4 N         -82.2210   27.4648  -72.3765 N.am      1 UNK        -0.4739 
      5 CA        -82.0994   27.8964  -73.7759 C.3       1 UNK         0.0864 
      6 C6        -80.7655   28.6424  -74.0258 C.3       11 UNK        -0.0881 
      7 S7        -80.7200   30.2807  -73.2201 S.3       11 UNK        -0.2682 
      8 C8        -79.8300   29.9639  -71.6593 C.3       11 UNK         0.0289 
      9 C9        -78.4424   29.3727  -71.8718 C.ar      11 UNK        -0.0687 
     10 C10       -78.1177   28.1318  -71.3144 C.ar      11 UNK        -0.0823 
     11 C11       -76.8522   27.5696  -71.5150 C.ar      11 UNK        -0.0830 
     12 C12       -75.9068   28.2734  -72.2663 C.ar      11 UNK        -0.1021 
     13 C13       -76.2076   29.5246  -72.8090 C.ar      11 UNK        -0.0753 
     14 C14       -77.4791   30.0696  -72.6089 C.ar      11 UNK        -0.0933 
     15 C15       -75.1508   30.2904  -73.5920 C.3       11 UNK         0.0166 
     16 S16       -73.8503   30.9040  -72.4761 S.3       11 UNK        -0.2615 
     17 C17       -73.0773   32.2422  -73.4537 C.3       11 UNK        -0.0865 
     18 CA        -71.5393   32.1140  -73.6240 C.3       10 UNK         0.0862 
     19 C         -70.7776   32.1248  -72.2630 C.2       10 UNK         0.5551 
     20 N         -70.0409   31.0802  -71.9041 N.am      10 UNK        -0.7319 
     21 O         -70.8484   33.1077  -71.5289 O.2       10 UNK        -0.5018 
     22 N         -71.1811   31.0328  -74.5573 N.am      10 UNK        -0.4509 
     23 C         -70.0047   30.9202  -75.1864 C.2       10 UNK         0.4899 
     24 O         -69.0690   31.7040  -75.0166 O.2       10 UNK        -0.4839 
     25 CA        -69.8509   29.7509  -76.1824 C.3       9 UNK         0.0222 
     26 CB        -68.4216   29.6403  -76.7480 C.3       9 UNK        -0.1966 
     27 N         -70.2402   28.4485  -75.6310 N.am      9 UNK        -0.4218 
     28 C         -71.4972   28.0178  -75.4729 C.2       9 UNK         0.5020 
     29 O         -72.4899   28.7245  -75.6609 O.2       9 UNK        -0.5274 
     30 CA        -71.6752   26.5656  -75.0026 C.3       8 UNK         0.0270 
     31 CB        -72.0483   26.5234  -73.5127 C.3       8 UNK        -0.1976 
     32 N         -72.7143   25.8995  -75.7904 N.am      8 UNK        -0.4313 
     33 C         -72.5666   25.5395  -77.0759 C.2       8 UNK         0.5041 
     34 O         -71.4948   25.6118  -77.6799 O.2       8 UNK        -0.5577 
     35 CA        -73.8034   25.0092  -77.8299 C.3       7 UNK         0.0284 
     36 CB        -73.7865   23.4724  -77.8732 C.3       7 UNK        -0.1958 
     37 N         -75.0734   25.4546  -77.2580 N.am      7 UNK        -0.4454 
     38 C         -75.5024   26.7224  -77.2007 C.2       7 UNK         0.5089 
     39 O         -74.9544   27.6540  -77.7896 O.2       7 UNK        -0.5125 
     40 CA        -76.7380   27.0096  -76.3245 C.3       6 UNK         0.0408 
     41 CB        -77.9504   27.3691  -77.1973 C.3       6 UNK        -0.1791 
     42 N         -77.1199   25.9221  -75.4168 N.am      6 UNK        -0.4762 
     43 C         -76.3786   25.4114  -74.4214 C.2       6 UNK         0.5007 
     44 O         -75.2155   25.7403  -74.1894 O.2       6 UNK        -0.5032 
     45 CA        -77.0453   24.2980  -73.5952 C.3       5 UNK         0.0783 
     46 C46       -78.1971   24.8520  -72.7082 C.3       11 UNK        -0.0857 
     47 S47       -77.7749   24.9561  -70.9390 S.3       11 UNK        -0.2512 
     48 C48       -76.4639   26.2276  -70.8987 C.3       11 UNK         0.0225 
     49 N         -77.5152   23.2514  -74.5026 N.am      5 UNK        -0.4615 
     50 C         -76.7505   22.2784  -75.0143 C.2       4 UNK         0.5053 
     51 O         -75.5711   22.1050  -74.7093 O.2       4 UNK        -0.5105 
     52 CA        -77.4055   21.3386  -76.0439 C.3       4 UNK         0.0263 
     53 CB        -77.8830   20.0468  -75.3612 C.3       4 UNK        -0.1981 
     54 N         -78.5314   21.9515  -76.7549 N.am      4 UNK        -0.4224 
     55 C         -78.4148   22.9375  -77.6558 C.2       3 UNK         0.4895 
     56 O         -77.3380   23.4003  -78.0294 O.2       3 UNK        -0.5091 
     57 CA        -79.7239   23.5404  -78.1966 C.3       3 UNK         0.0250 
     58 CB        -80.2098   22.7553  -79.4254 C.3       3 UNK        -0.1996 
     59 N         -80.8067   23.6230  -77.2059 N.am      3 UNK        -0.4254 
     60 C         -80.7330   24.2894  -76.0453 C.2       2 UNK         0.5004 
     61 O         -79.7100   24.8459  -75.6399 O.2       2 UNK        -0.5226 
     62 CA        -81.9889   24.2896  -75.1596 C.3       2 UNK         0.0269 
     63 CB        -82.0049   23.0445  -74.2578 C.3       2 UNK        -0.1926 
     64 N         -82.0358   25.4867  -74.3168 N.am      2 UNK        -0.4687 
     65 C         -82.2542   26.7286  -74.7744 C.2       1 UNK         0.5165 
     66 O         -82.5627   26.9750  -75.9418 O.2       1 UNK        -0.5079 
     67 H67       -82.2778   26.7095  -69.9432 H         1 UNK         0.0900 
     68 H68       -83.8949   27.3718  -69.6988 H         1 UNK         0.0900 
     69 H69       -83.6959   25.6943  -70.2123 H         1 UNK         0.0900 
     70 H70       -81.3583   27.4165  -71.8558 H         1 UNK         0.2959 
     71 H71       -82.9189   28.5868  -73.9900 H         1 UNK         0.1079 
     72 H72       -80.6258   28.8269  -75.0931 H         1 UNK         0.0837 
     73 H73       -79.9121   28.0345  -73.7213 H         1 UNK         0.0837 
     74 H74       -79.7300   30.9059  -71.1185 H         1 UNK         0.0685 
     75 H75       -80.4402   29.3167  -71.0285 H         1 UNK         0.0685 
     76 H76       -78.8500   27.6009  -70.7225 H         1 UNK         0.1434 
     77 H77       -74.9218   27.8563  -72.4181 H         1 UNK         0.1329 
     78 H78       -77.7239   31.0368  -73.0262 H         1 UNK         0.1335 
     79 H79       -75.6074   31.1278  -74.1218 H         1 UNK         0.0680 
     80 H80       -74.7082   29.6421  -74.3498 H         1 UNK         0.0680 
     81 H81       -73.5481   32.3027  -74.4360 H         1 UNK         0.1032 
     82 H82       -73.3150   33.1883  -72.9640 H         1 UNK         0.1032 
     83 H83       -71.2221   33.0353  -74.1170 H         1 UNK         0.0461 
     84 H84       -69.9767   30.2763  -72.5066 H         1 UNK         0.3453 
     85 H85       -69.5478   31.0985  -71.0256 H         1 UNK         0.3453 
     86 H86       -71.8930   30.3341  -74.7513 H         1 UNK         0.2984 
     87 H87       -70.5132   29.9732  -77.0219 H         1 UNK         0.0554 
     88 H88       -68.1192   30.5679  -77.2362 H         1 UNK         0.0847 
     89 H89       -68.3493   28.8498  -77.4954 H         1 UNK         0.0847 
     90 H90       -67.6918   29.4313  -75.9648 H         1 UNK         0.0847 
     91 H91       -69.4844   27.8155  -75.4103 H         1 UNK         0.3141 
     92 H92       -70.7386   26.0210  -75.1399 H         1 UNK         0.0743 
     93 H93       -72.9575   27.0901  -73.3133 H         1 UNK         0.0784 
     94 H94       -72.2095   25.5010  -73.1703 H         1 UNK         0.0784 
     95 H95       -71.2561   26.9533  -72.8985 H         1 UNK         0.0784 
     96 H96       -73.6350   25.8414  -75.3628 H         1 UNK         0.3213 
     97 H97       -73.7489   25.3852  -78.8536 H         1 UNK         0.0855 
     98 H98       -73.8684   23.0400  -76.8750 H         1 UNK         0.0814 
     99 H99       -72.8591   23.1040  -78.3140 H         1 UNK         0.0814 
    100 H100      -74.6071   23.0829  -78.4759 H         1 UNK         0.0814 
    101 H101      -75.6414   24.7511  -76.8066 H         1 UNK         0.3105 
    102 H102      -76.4944   27.8744  -75.7039 H         1 UNK         0.0547 
    103 H103      -77.7301   28.2195  -77.8439 H         1 UNK         0.0837 
    104 H104      -78.2406   26.5368  -77.8387 H         1 UNK         0.0837 
    105 H105      -78.8133   27.6395  -76.5886 H         1 UNK         0.0837 
    106 H106      -78.0643   25.5559  -75.5366 H         1 UNK         0.3020 
    107 H107      -76.2752   23.8633  -72.9532 H         1 UNK         0.1245 
    108 H108      -79.0654   24.1940  -72.7642 H         1 UNK         0.0781 
    109 H109      -78.5683   25.8212  -73.0478 H         1 UNK         0.0781 
    110 H110      -75.5770   25.8244  -71.3899 H         1 UNK         0.0836 
    111 H111      -76.1811   26.3976  -69.8592 H         1 UNK         0.0836 
    112 H112      -78.4506   23.3774  -74.8678 H         1 UNK         0.3022 
    113 H113      -76.6417   21.0761  -76.7794 H         1 UNK         0.0747 
    114 H114      -78.2809   19.3375  -76.0872 H         1 UNK         0.0793 
    115 H115      -77.0592   19.5512  -74.8453 H         1 UNK         0.0793 
    116 H116      -78.6596   20.2433  -74.6209 H         1 UNK         0.0793 
    117 H117      -79.4571   21.6277  -76.5150 H         1 UNK         0.3047 
    118 H118      -79.4998   24.5602  -78.5150 H         1 UNK         0.0822 
    119 H119      -81.0721   23.2355  -79.8884 H         1 UNK         0.0807 
    120 H120      -80.4911   21.7332  -79.1685 H         1 UNK         0.0807 
    121 H121      -79.4287   22.6971  -80.1850 H         1 UNK         0.0807 
    122 H122      -81.6777   23.1762  -77.4557 H         1 UNK         0.2946 
    123 H123      -82.8736   24.2817  -75.8005 H         1 UNK         0.1144 
    124 H124      -82.8956   23.0227  -73.6295 H         1 UNK         0.0793 
    125 H125      -81.1331   23.0054  -73.6035 H         1 UNK         0.0793 
    126 H126      -82.0087   22.1290  -74.8508 H         1 UNK         0.0793 
    127 H127      -81.7763   25.3758  -73.3484 H         1 UNK         0.2896 
@<TRIPOS>BOND
     1    1    2 1    
     2    1   67 1    
     3    1   68 1    
     4    1   69 1    
     5    2    3 2    
     6    2    4 am   BACKBONE|DICT|INTERRES
     7    4    5 1    
     8    4   70 1    
     9    5    6 1    
    10    5   65 1    
    11    5   71 1    
    12    6    7 1    
    13    6   72 1    
    14    6   73 1    
    15    7    8 1    
    16    8    9 1    
    17    8   74 1    
    18    8   75 1    
    19    9   10 ar   
    20    9   14 ar   
    21   10   11 ar   
    22   10   76 1    
    23   11   12 ar   
    24   11   48 1    
    25   12   13 ar   
    26   12   77 1    
    27   13   14 ar   
    28   13   15 1    
    29   14   78 1    
    30   15   16 1    
    31   15   79 1    
    32   15   80 1    
    33   16   17 1    
    34   17   18 1    
    35   17   81 1    
    36   17   82 1    
    37   18   19 1    
    38   18   22 1    
    39   18   83 1    
    40   19   20 am   BACKBONE|DICT|INTERRES
    41   19   21 2    
    42   20   84 1    
    43   20   85 1    
    44   22   23 am   BACKBONE|DICT|INTERRES
    45   22   86 1    
    46   23   24 2    
    47   23   25 1    
    48   25   26 1    
    49   25   27 1    
    50   25   87 1    
    51   26   88 1    
    52   26   89 1    
    53   26   90 1    
    54   27   28 am   BACKBONE|DICT|INTERRES
    55   27   91 1    
    56   28   29 2    
    57   28   30 1    
    58   30   31 1    
    59   30   32 1    
    60   30   92 1    
    61   31   93 1    
    62   31   94 1    
    63   31   95 1    
    64   32   33 am   BACKBONE|DICT|INTERRES
    65   32   96 1    
    66   33   34 2    
    67   33   35 1    
    68   35   36 1    
    69   35   37 1    
    70   35   97 1    
    71   36   98 1    
    72   36   99 1    
    73   36  100 1    
    74   37   38 am   BACKBONE|DICT|INTERRES
    75   37  101 1    
    76   38   39 2    
    77   38   40 1    
    78   40   41 1    
    79   40   42 1    
    80   40  102 1    
    81   41  103 1    
    82   41  104 1    
    83   41  105 1    
    84   42   43 am   BACKBONE|DICT|INTERRES
    85   42  106 1    
    86   43   44 2    
    87   43   45 1    
    88   45   46 1    
    89   45   49 1    
    90   45  107 1    
    91   46   47 1    
    92   46  108 1    
    93   46  109 1    
    94   47   48 1    
    95   48  110 1    
    96   48  111 1    
    97   49   50 am   BACKBONE|DICT|INTERRES
    98   49  112 1    
    99   50   51 2    
   100   50   52 1    
   101   52   53 1    
   102   52   54 1    
   103   52  113 1    
   104   53  114 1    
   105   53  115 1    
   106   53  116 1    
   107   54   55 am   BACKBONE|DICT|INTERRES
   108   54  117 1    
   109   55   56 2    
   110   55   57 1    
   111   57   58 1    
   112   57   59 1    
   113   57  118 1    
   114   58  119 1    
   115   58  120 1    
   116   58  121 1    
   117   59   60 am   BACKBONE|DICT|INTERRES
   118   59  122 1    
   119   60   61 2    
   120   60   62 1    
   121   62   63 1    
   122   62   64 1    
   123   62  123 1    
   124   63  124 1    
   125   63  125 1    
   126   63  126 1    
   127   64   65 am   BACKBONE|DICT|INTERRES
   128   64  127 1    
   129   65   66 2    
@<TRIPOS>SUBSTRUCTURE
     1 UNK         1 GROUP             0       ****    0 ROOT    
