@<TRIPOS>MOLECULE
3R135
127   129    1
SMALL
USER_CHARGES


@<TRIPOS>ATOM
      1 CA        -84.0743   28.0005  -75.8739 C.3       0 UNK        -0.1998 
      2 C         -82.7739   27.2786  -75.5567 C.2       0 UNK         0.4909 
      3 O         -82.7980   26.2423  -74.8915 O.2       0 UNK        -0.5240 
      4 N         -81.6409   27.8059  -76.0476 N.am      1 UNK        -0.4739 
      5 CA        -80.2718   27.3120  -75.8137 C.3       1 UNK         0.0864 
      6 C6        -79.7939   27.5594  -74.3557 C.3       11 UNK        -0.0881 
      7 S7        -79.4942   29.3305  -74.0269 S.3       11 UNK        -0.2682 
      8 C8        -77.7176   29.4877  -74.4136 C.3       11 UNK         0.0289 
      9 C9        -76.8270   29.1561  -73.2221 C.ar      11 UNK        -0.0687 
     10 C10       -76.4917   27.8313  -72.9368 C.ar      11 UNK        -0.0823 
     11 C11       -75.6635   27.5116  -71.8588 C.ar      11 UNK        -0.0830 
     12 C12       -75.1635   28.5410  -71.0550 C.ar      11 UNK        -0.1021 
     13 C13       -75.4901   29.8756  -71.3258 C.ar      11 UNK        -0.0753 
     14 C14       -76.3196   30.1753  -72.4116 C.ar      11 UNK        -0.0933 
     15 C15       -74.9971   30.9982  -70.4234 C.3       11 UNK         0.0166 
     16 S16       -73.3890   31.6602  -70.9610 S.3       11 UNK        -0.2615 
     17 C17       -72.2346   30.5416  -70.0935 C.3       11 UNK        -0.0865 
     18 CA        -70.9896   30.1577  -70.9330 C.3       10 UNK         0.0862 
     19 C         -70.0433   29.2440  -70.0980 C.2       10 UNK         0.5551 
     20 N         -69.8815   27.9698  -70.4337 N.am      10 UNK        -0.7319 
     21 O         -69.4483   29.7041  -69.1266 O.2       10 UNK        -0.5018 
     22 N         -71.3572   29.6382  -72.2615 N.am      10 UNK        -0.4509 
     23 C         -70.5024   29.4690  -73.2786 C.2       10 UNK         0.4899 
     24 O         -69.2977   29.7168  -73.2179 O.2       10 UNK        -0.4839 
     25 CA        -71.0903   28.9356  -74.5933 C.3       9 UNK         0.0222 
     26 CB        -71.1455   27.4000  -74.5730 C.3       9 UNK        -0.1966 
     27 N         -72.4222   29.4625  -74.8934 N.am      9 UNK        -0.4218 
     28 C         -72.7077   30.7296  -75.2194 C.2       9 UNK         0.5020 
     29 O         -71.8714   31.6342  -75.2583 O.2       9 UNK        -0.5274 
     30 CA        -74.1694   31.0046  -75.6309 C.3       8 UNK         0.0270 
     31 CB        -74.4566   32.5001  -75.8589 C.3       8 UNK        -0.1976 
     32 N         -74.5380   30.2516  -76.8373 N.am      8 UNK        -0.4313 
     33 C         -74.7955   28.9390  -76.8545 C.2       8 UNK         0.5041 
     34 O         -74.7970   28.2407  -75.8372 O.2       8 UNK        -0.5577 
     35 CA        -75.0482   28.2760  -78.2121 C.3       7 UNK         0.0284 
     36 CB        -73.7209   28.0746  -78.9697 C.3       7 UNK        -0.1958 
     37 N         -75.6765   26.9917  -77.9250 N.am      7 UNK        -0.4454 
     38 C         -76.2365   26.1317  -78.7785 C.2       7 UNK         0.5089 
     39 O         -76.2907   26.3168  -79.9950 O.2       7 UNK        -0.5125 
     40 CA        -76.8952   24.8767  -78.1676 C.3       6 UNK         0.0408 
     41 CB        -76.6972   23.6159  -79.0341 C.3       6 UNK        -0.1791 
     42 N         -76.5547   24.6237  -76.7561 N.am      6 UNK        -0.4762 
     43 C         -75.3620   24.2564  -76.2567 C.2       6 UNK         0.5007 
     44 O         -74.3670   24.0576  -76.9541 O.2       6 UNK        -0.5032 
     45 CA        -75.2262   24.1232  -74.7204 C.3       5 UNK         0.0783 
     46 C46       -74.4559   25.3540  -74.1707 C.3       11 UNK        -0.0857 
     47 S47       -73.9937   25.2894  -72.4037 S.3       11 UNK        -0.2512 
     48 C48       -75.3961   26.0505  -71.5128 C.3       11 UNK         0.0225 
     49 N         -76.5009   23.9020  -74.0191 N.am      5 UNK        -0.4615 
     50 C         -77.2762   22.8135  -74.1318 C.2       4 UNK         0.5053 
     51 O         -77.0536   21.8978  -74.9239 O.2       4 UNK        -0.5105 
     52 CA        -78.4819   22.6960  -73.1840 C.3       4 UNK         0.0263 
     53 CB        -78.4916   23.7014  -72.0148 C.3       4 UNK        -0.1981 
     54 N         -79.7227   22.8293  -73.9416 N.am      4 UNK        -0.4224 
     55 C         -80.8251   22.0914  -73.7420 C.2       3 UNK         0.4895 
     56 O         -80.8930   21.1831  -72.9121 O.2       3 UNK        -0.5091 
     57 CA        -82.0828   22.4171  -74.5743 C.3       3 UNK         0.0250 
     58 CB        -83.1669   23.0453  -73.6828 C.3       3 UNK        -0.1996 
     59 N         -81.8256   23.3111  -75.7041 N.am      3 UNK        -0.4254 
     60 C         -81.1992   22.9472  -76.8324 C.2       2 UNK         0.5004 
     61 O         -80.8705   21.7879  -77.0844 O.2       2 UNK        -0.5226 
     62 CA        -80.8521   24.0571  -77.8428 C.3       2 UNK         0.0269 
     63 CB        -81.8248   24.0235  -79.0324 C.3       2 UNK        -0.1926 
     64 N         -80.8331   25.4149  -77.2830 N.am      2 UNK        -0.4687 
     65 C         -80.0604   25.8489  -76.2747 C.2       1 UNK         0.5165 
     66 O         -79.2224   25.1359  -75.7165 O.2       1 UNK        -0.5079 
     67 H67       -84.5686   28.3017  -74.9508 H         1 UNK         0.0900 
     68 H68       -84.7463   27.3395  -76.4205 H         1 UNK         0.0900 
     69 H69       -83.9095   28.8930  -76.4772 H         1 UNK         0.0900 
     70 H70       -81.6987   28.6540  -76.5950 H         1 UNK         0.2959 
     71 H71       -79.6248   27.8906  -76.4751 H         1 UNK         0.1079 
     72 H72       -80.5312   27.1909  -73.6408 H         1 UNK         0.0837 
     73 H73       -78.8862   27.0082  -74.1331 H         1 UNK         0.0837 
     74 H74       -77.4658   28.8471  -75.2597 H         1 UNK         0.0685 
     75 H75       -77.5237   30.5089  -74.7452 H         1 UNK         0.0685 
     76 H76       -76.8754   27.0394  -73.5578 H         1 UNK         0.1434 
     77 H77       -74.5478   28.2972  -70.2011 H         1 UNK         0.1329 
     78 H78       -76.5771   31.2045  -72.6214 H         1 UNK         0.1335 
     79 H79       -74.9371   30.6589  -69.3881 H         1 UNK         0.0680 
     80 H80       -75.7218   31.8140  -70.4256 H         1 UNK         0.0680 
     81 H81       -72.7600   29.6396  -69.7802 H         1 UNK         0.1032 
     82 H82       -71.9281   31.0399  -69.1715 H         1 UNK         0.1032 
     83 H83       -70.4295   31.0779  -71.1112 H         1 UNK         0.0461 
     84 H84       -69.2656   27.3882  -69.8879 H         1 UNK         0.3453 
     85 H85       -70.3664   27.5876  -71.2291 H         1 UNK         0.3453 
     86 H86       -72.3345   29.4307  -72.4053 H         1 UNK         0.2984 
     87 H87       -70.4243   29.2406  -75.4031 H         1 UNK         0.0554 
     88 H88       -71.5060   27.0021  -75.5219 H         1 UNK         0.0847 
     89 H89       -71.8010   27.0314  -73.7833 H         1 UNK         0.0847 
     90 H90       -70.1556   26.9757  -74.3995 H         1 UNK         0.0847 
     91 H91       -73.1888   28.7953  -74.9556 H         1 UNK         0.3141 
     92 H92       -74.7997   30.6738  -74.8036 H         1 UNK         0.0743 
     93 H93       -74.2149   33.0821  -74.9684 H         1 UNK         0.0784 
     94 H94       -73.8690   32.9050  -76.6838 H         1 UNK         0.0784 
     95 H95       -75.5103   32.6719  -76.0795 H         1 UNK         0.0784 
     96 H96       -74.5121   30.7577  -77.7113 H         1 UNK         0.3213 
     97 H97       -75.7346   28.8926  -78.7956 H         1 UNK         0.0855 
     98 H98       -73.2223   29.0269  -79.1535 H         1 UNK         0.0814 
     99 H99       -73.8792   27.6055  -79.9406 H         1 UNK         0.0814 
    100 H100      -73.0295   27.4473  -78.4052 H         1 UNK         0.0814 
    101 H101      -75.6769   26.7762  -76.9344 H         1 UNK         0.3105 
    102 H102      -77.9595   25.1007  -78.1748 H         1 UNK         0.0547 
    103 H103      -77.1175   23.7562  -80.0307 H         1 UNK         0.0837 
    104 H104      -75.6427   23.3710  -79.1619 H         1 UNK         0.0837 
    105 H105      -77.1932   22.7508  -78.5939 H         1 UNK         0.0837 
    106 H106      -77.3262   24.7511  -76.1068 H         1 UNK         0.3020 
    107 H107      -74.6106   23.2376  -74.5462 H         1 UNK         0.1245 
    108 H108      -75.0016   26.2674  -74.3731 H         1 UNK         0.0781 
    109 H109      -73.5169   25.4664  -74.7160 H         1 UNK         0.0781 
    110 H110      -75.2012   25.9618  -70.4429 H         1 UNK         0.0836 
    111 H111      -76.2961   25.4679  -71.6877 H         1 UNK         0.0836 
    112 H112      -76.7593   24.5985  -73.3400 H         1 UNK         0.3022 
    113 H113      -78.4186   21.6928  -72.7570 H         1 UNK         0.0747 
    114 H114      -79.3395   23.5175  -71.3545 H         1 UNK         0.0793 
    115 H115      -77.5947   23.5987  -71.4034 H         1 UNK         0.0793 
    116 H116      -78.5678   24.7341  -72.3577 H         1 UNK         0.0793 
    117 H117      -79.7215   23.5420  -74.6657 H         1 UNK         0.3047 
    118 H118      -82.4675   21.4721  -74.9639 H         1 UNK         0.0822 
    119 H119      -84.0797   23.2425  -74.2452 H         1 UNK         0.0807 
    120 H120      -82.8323   23.9877  -73.2469 H         1 UNK         0.0807 
    121 H121      -83.4314   22.3807  -72.8591 H         1 UNK         0.0807 
    122 H122      -82.0708   24.2869  -75.5734 H         1 UNK         0.2946 
    123 H123      -79.8519   23.8313  -78.2149 H         1 UNK         0.1144 
    124 H124      -81.5296   24.7309  -79.8076 H         1 UNK         0.0793 
    125 H125      -82.8440   24.2635  -78.7266 H         1 UNK         0.0793 
    126 H126      -81.8470   23.0344  -79.4925 H         1 UNK         0.0793 
    127 H127      -81.5001   26.0674  -77.6698 H         1 UNK         0.2896 
@<TRIPOS>BOND
     1    1    2 1    
     2    1   67 1    
     3    1   68 1    
     4    1   69 1    
     5    2    3 2    
     6    2    4 am   BACKBONE|DICT|INTERRES
     7    4    5 1    
     8    4   70 1    
     9    5    6 1    
    10    5   65 1    
    11    5   71 1    
    12    6    7 1    
    13    6   72 1    
    14    6   73 1    
    15    7    8 1    
    16    8    9 1    
    17    8   74 1    
    18    8   75 1    
    19    9   10 ar   
    20    9   14 ar   
    21   10   11 ar   
    22   10   76 1    
    23   11   12 ar   
    24   11   48 1    
    25   12   13 ar   
    26   12   77 1    
    27   13   14 ar   
    28   13   15 1    
    29   14   78 1    
    30   15   16 1    
    31   15   79 1    
    32   15   80 1    
    33   16   17 1    
    34   17   18 1    
    35   17   81 1    
    36   17   82 1    
    37   18   19 1    
    38   18   22 1    
    39   18   83 1    
    40   19   20 am   BACKBONE|DICT|INTERRES
    41   19   21 2    
    42   20   84 1    
    43   20   85 1    
    44   22   23 am   BACKBONE|DICT|INTERRES
    45   22   86 1    
    46   23   24 2    
    47   23   25 1    
    48   25   26 1    
    49   25   27 1    
    50   25   87 1    
    51   26   88 1    
    52   26   89 1    
    53   26   90 1    
    54   27   28 am   BACKBONE|DICT|INTERRES
    55   27   91 1    
    56   28   29 2    
    57   28   30 1    
    58   30   31 1    
    59   30   32 1    
    60   30   92 1    
    61   31   93 1    
    62   31   94 1    
    63   31   95 1    
    64   32   33 am   BACKBONE|DICT|INTERRES
    65   32   96 1    
    66   33   34 2    
    67   33   35 1    
    68   35   36 1    
    69   35   37 1    
    70   35   97 1    
    71   36   98 1    
    72   36   99 1    
    73   36  100 1    
    74   37   38 am   BACKBONE|DICT|INTERRES
    75   37  101 1    
    76   38   39 2    
    77   38   40 1    
    78   40   41 1    
    79   40   42 1    
    80   40  102 1    
    81   41  103 1    
    82   41  104 1    
    83   41  105 1    
    84   42   43 am   BACKBONE|DICT|INTERRES
    85   42  106 1    
    86   43   44 2    
    87   43   45 1    
    88   45   46 1    
    89   45   49 1    
    90   45  107 1    
    91   46   47 1    
    92   46  108 1    
    93   46  109 1    
    94   47   48 1    
    95   48  110 1    
    96   48  111 1    
    97   49   50 am   BACKBONE|DICT|INTERRES
    98   49  112 1    
    99   50   51 2    
   100   50   52 1    
   101   52   53 1    
   102   52   54 1    
   103   52  113 1    
   104   53  114 1    
   105   53  115 1    
   106   53  116 1    
   107   54   55 am   BACKBONE|DICT|INTERRES
   108   54  117 1    
   109   55   56 2    
   110   55   57 1    
   111   57   58 1    
   112   57   59 1    
   113   57  118 1    
   114   58  119 1    
   115   58  120 1    
   116   58  121 1    
   117   59   60 am   BACKBONE|DICT|INTERRES
   118   59  122 1    
   119   60   61 2    
   120   60   62 1    
   121   62   63 1    
   122   62   64 1    
   123   62  123 1    
   124   63  124 1    
   125   63  125 1    
   126   63  126 1    
   127   64   65 am   BACKBONE|DICT|INTERRES
   128   64  127 1    
   129   65   66 2    
@<TRIPOS>SUBSTRUCTURE
     1 UNK         1 GROUP             0       ****    0 ROOT    
