@<TRIPOS>MOLECULE
3R135
127   129    1
SMALL
USER_CHARGES


@<TRIPOS>ATOM
      1 CA        -79.1375   30.3399  -76.4798 C.3       0 UNK        -0.1998 
      2 C         -79.3657   29.4329  -75.2799 C.2       0 UNK         0.4909 
      3 O         -78.4026   28.9135  -74.7182 O.2       0 UNK        -0.5240 
      4 N         -80.6300   29.2473  -74.8821 N.am      1 UNK        -0.4739 
      5 CA        -81.0260   28.3478  -73.7957 C.3       1 UNK         0.0864 
      6 C6        -82.2450   28.8782  -73.0007 C.3       11 UNK        -0.0881 
      7 S7        -81.9387   30.5087  -72.2392 S.3       11 UNK        -0.2682 
      8 C8        -81.4316   30.0519  -70.5503 C.3       11 UNK         0.0289 
      9 C9        -80.0304   29.4580  -70.5205 C.ar      11 UNK        -0.0687 
     10 C10       -79.8468   28.0768  -70.4124 C.ar      11 UNK        -0.0823 
     11 C11       -78.5607   27.5288  -70.3976 C.ar      11 UNK        -0.0830 
     12 C12       -77.4555   28.3877  -70.4347 C.ar      11 UNK        -0.1021 
     13 C13       -77.6181   29.7723  -70.5722 C.ar      11 UNK        -0.0753 
     14 C14       -78.9144   30.2949  -70.6092 C.ar      11 UNK        -0.0933 
     15 C15       -76.4420   30.7447  -70.7087 C.3       11 UNK         0.0166 
     16 S16       -74.7780   30.0485  -70.4126 S.3       11 UNK        -0.2615 
     17 C17       -74.4030   29.1887  -71.9863 C.3       11 UNK        -0.0865 
     18 CA        -73.1986   29.8088  -72.7518 C.3       10 UNK         0.0862 
     19 C         -71.8204   29.4549  -72.1012 C.2       10 UNK         0.5551 
     20 N         -70.8766   28.8361  -72.8011 N.am      10 UNK        -0.7319 
     21 O         -71.5845   29.7653  -70.9369 O.2       10 UNK        -0.5018 
     22 N         -73.2846   29.5135  -74.1926 N.am      10 UNK        -0.4509 
     23 C         -72.6650   30.2089  -75.1560 C.2       10 UNK         0.4899 
     24 O         -72.0493   31.2571  -74.9543 O.2       10 UNK        -0.4839 
     25 CA        -72.7233   29.6058  -76.5753 C.3       9 UNK         0.0222 
     26 CB        -71.7668   30.2994  -77.5676 C.3       9 UNK        -0.1966 
     27 N         -72.5081   28.1529  -76.5805 N.am      9 UNK        -0.4218 
     28 C         -71.4534   27.4777  -76.0975 C.2       9 UNK         0.5020 
     29 O         -70.4549   28.0209  -75.6242 O.2       9 UNK        -0.5274 
     30 CA        -71.5309   25.9385  -76.0781 C.3       8 UNK         0.0270 
     31 CB        -71.6816   25.4387  -74.6311 C.3       8 UNK        -0.1976 
     32 N         -72.6231   25.3890  -76.8856 N.am      8 UNK        -0.4313 
     33 C         -72.6282   25.3301  -78.2242 C.2       8 UNK         0.5041 
     34 O         -71.6753   25.6657  -78.9285 O.2       8 UNK        -0.5577 
     35 CA        -73.9307   24.8541  -78.8912 C.3       7 UNK         0.0284 
     36 CB        -73.9960   23.3190  -78.9257 C.3       7 UNK        -0.1958 
     37 N         -75.1320   25.3906  -78.2420 N.am      7 UNK        -0.4454 
     38 C         -75.4465   26.6942  -78.1848 C.2       7 UNK         0.5089 
     39 O         -74.7815   27.5838  -78.7145 O.2       7 UNK        -0.5125 
     40 CA        -76.6763   27.0812  -77.3508 C.3       6 UNK         0.0408 
     41 CB        -77.9754   26.8300  -78.1320 C.3       6 UNK        -0.1791 
     42 N         -76.7238   26.3682  -76.0769 N.am      6 UNK        -0.4762 
     43 C         -75.8488   26.5133  -75.0732 C.2       6 UNK         0.5007 
     44 O         -74.9057   27.3044  -75.0874 O.2       6 UNK        -0.5032 
     45 CA        -76.0244   25.5818  -73.8609 C.3       5 UNK         0.0783 
     46 C46       -77.0579   26.1577  -72.8677 C.3       11 UNK        -0.0857 
     47 S47       -76.9381   25.3511  -71.2353 S.3       11 UNK        -0.2512 
     48 C48       -78.3956   26.0091  -70.3436 C.3       11 UNK         0.0225 
     49 N         -76.3525   24.2138  -74.2711 N.am      5 UNK        -0.4615 
     50 C         -75.5350   23.4028  -74.9541 C.2       4 UNK         0.5053 
     51 O         -74.3936   23.7105  -75.2953 O.2       4 UNK        -0.5105 
     52 CA        -76.1021   22.0304  -75.3535 C.3       4 UNK         0.0263 
     53 CB        -75.9982   21.0406  -74.1824 C.3       4 UNK        -0.1981 
     54 N         -77.4917   22.1075  -75.8130 N.am      4 UNK        -0.4224 
     55 C         -77.8778   22.7153  -76.9441 C.2       3 UNK         0.4895 
     56 O         -77.0995   23.2392  -77.7415 O.2       3 UNK        -0.5091 
     57 CA        -79.3940   22.7985  -77.2030 C.3       3 UNK         0.0250 
     58 CB        -79.9151   21.4818  -77.8007 C.3       3 UNK        -0.1996 
     59 N         -80.1924   23.1580  -76.0211 N.am      3 UNK        -0.4254 
     60 C         -80.0008   24.2613  -75.2842 C.2       2 UNK         0.5004 
     61 O         -79.0760   25.0489  -75.4780 O.2       2 UNK        -0.5226 
     62 CA        -80.9647   24.5075  -74.1092 C.3       2 UNK         0.0269 
     63 CB        -80.6031   23.5944  -72.9252 C.3       2 UNK        -0.1926 
     64 N         -80.9165   25.9027  -73.6546 N.am      2 UNK        -0.4687 
     65 C         -81.3248   26.9548  -74.3777 C.2       1 UNK         0.5165 
     66 O         -81.9370   26.8566  -75.4453 O.2       1 UNK        -0.5079 
     67 H67       -78.4934   31.1733  -76.2008 H         1 UNK         0.0900 
     68 H68       -80.0713   30.7471  -76.8668 H         1 UNK         0.0900 
     69 H69       -78.6500   29.7864  -77.2815 H         1 UNK         0.0900 
     70 H70       -81.3887   29.6713  -75.3960 H         1 UNK         0.2959 
     71 H71       -80.1872   28.2496  -73.1052 H         1 UNK         0.1079 
     72 H72       -82.5354   28.1714  -72.2211 H         1 UNK         0.0837 
     73 H73       -83.1136   28.9739  -73.6553 H         1 UNK         0.0837 
     74 H74       -81.4557   30.9456  -69.9249 H         1 UNK         0.0685 
     75 H75       -82.1589   29.3623  -70.1191 H         1 UNK         0.0685 
     76 H76       -80.7097   27.4272  -70.3552 H         1 UNK         0.1434 
     77 H77       -76.4658   27.9595  -70.3949 H         1 UNK         0.1329 
     78 H78       -79.0590   31.3617  -70.7141 H         1 UNK         0.1335 
     79 H79       -76.5855   31.5586  -69.9965 H         1 UNK         0.0680 
     80 H80       -76.4663   31.1987  -71.7005 H         1 UNK         0.0680 
     81 H81       -75.2972   29.2220  -72.6116 H         1 UNK         0.1032 
     82 H82       -74.2293   28.1303  -71.7835 H         1 UNK         0.1032 
     83 H83       -73.2905   30.8931  -72.6631 H         1 UNK         0.0461 
     84 H84       -70.9936   28.6239  -73.7847 H         1 UNK         0.3453 
     85 H85       -69.9979   28.6327  -72.3529 H         1 UNK         0.3453 
     86 H86       -73.7862   28.6686  -74.4581 H         1 UNK         0.2984 
     87 H87       -73.7424   29.7620  -76.9320 H         1 UNK         0.0554 
     88 H88       -71.8511   29.8676  -78.5648 H         1 UNK         0.0847 
     89 H89       -70.7261   30.2160  -77.2525 H         1 UNK         0.0847 
     90 H90       -71.9963   31.3620  -77.6548 H         1 UNK         0.0847 
     91 H91       -73.2940   27.6080  -76.9121 H         1 UNK         0.3141 
     92 H92       -70.5862   25.5600  -76.4740 H         1 UNK         0.0743 
     93 H93       -72.6069   25.7950  -74.1771 H         1 UNK         0.0784 
     94 H94       -71.6843   24.3494  -74.5855 H         1 UNK         0.0784 
     95 H95       -70.8573   25.7860  -74.0066 H         1 UNK         0.0784 
     96 H96       -73.4177   25.0078  -76.3772 H         1 UNK         0.3213 
     97 H97       -73.9238   25.2166  -79.9214 H         1 UNK         0.0855 
     98 H98       -74.0376   22.8928  -77.9231 H         1 UNK         0.0814 
     99 H99       -73.1188   22.9019  -79.4221 H         1 UNK         0.0814 
    100 H100      -74.8731   22.9722  -79.4723 H         1 UNK         0.0814 
    101 H101      -75.7666   24.7163  -77.8223 H         1 UNK         0.3105 
    102 H102      -76.6121   28.1485  -77.1290 H         1 UNK         0.0547 
    103 H103      -78.0996   25.7760  -78.3818 H         1 UNK         0.0837 
    104 H104      -78.8484   27.1380  -77.5561 H         1 UNK         0.0837 
    105 H105      -77.9845   27.3925  -79.0663 H         1 UNK         0.0837 
    106 H106      -77.5205   25.7475  -75.9300 H         1 UNK         0.3020 
    107 H107      -75.0537   25.5478  -73.3607 H         1 UNK         0.1245 
    108 H108      -76.8920   27.2275  -72.7377 H         1 UNK         0.0781 
    109 H109      -78.0726   26.0580  -73.2527 H         1 UNK         0.0781 
    110 H110      -79.2840   25.5210  -70.7458 H         1 UNK         0.0836 
    111 H111      -78.3277   25.7050  -69.2984 H         1 UNK         0.0836 
    112 H112      -77.2922   23.9051  -74.0759 H         1 UNK         0.3022 
    113 H113      -75.4950   21.6484  -76.1771 H         1 UNK         0.0747 
    114 H114      -76.3229   20.0425  -74.4769 H         1 UNK         0.0793 
    115 H115      -74.9671   20.9550  -73.8363 H         1 UNK         0.0793 
    116 H116      -76.6027   21.3536  -73.3300 H         1 UNK         0.0793 
    117 H117      -78.1996   21.7050  -75.2164 H         1 UNK         0.3047 
    118 H118      -79.5471   23.5875  -77.9424 H         1 UNK         0.0822 
    119 H119      -80.9584   21.5692  -78.1050 H         1 UNK         0.0807 
    120 H120      -79.8395   20.6559  -77.0924 H         1 UNK         0.0807 
    121 H121      -79.3444   21.2034  -78.6881 H         1 UNK         0.0807 
    122 H122      -80.9626   22.5454  -75.7929 H         1 UNK         0.2946 
    123 H123      -81.9814   24.2870  -74.4425 H         1 UNK         0.1144 
    124 H124      -81.2714   23.7573  -72.0793 H         1 UNK         0.0793 
    125 H125      -79.5810   23.7609  -72.5822 H         1 UNK         0.0793 
    126 H126      -80.6860   22.5418  -73.1987 H         1 UNK         0.0793 
    127 H127      -80.4155   26.0723  -72.7966 H         1 UNK         0.2896 
@<TRIPOS>BOND
     1    1    2 1    
     2    1   67 1    
     3    1   68 1    
     4    1   69 1    
     5    2    3 2    
     6    2    4 am   BACKBONE|DICT|INTERRES
     7    4    5 1    
     8    4   70 1    
     9    5    6 1    
    10    5   65 1    
    11    5   71 1    
    12    6    7 1    
    13    6   72 1    
    14    6   73 1    
    15    7    8 1    
    16    8    9 1    
    17    8   74 1    
    18    8   75 1    
    19    9   10 ar   
    20    9   14 ar   
    21   10   11 ar   
    22   10   76 1    
    23   11   12 ar   
    24   11   48 1    
    25   12   13 ar   
    26   12   77 1    
    27   13   14 ar   
    28   13   15 1    
    29   14   78 1    
    30   15   16 1    
    31   15   79 1    
    32   15   80 1    
    33   16   17 1    
    34   17   18 1    
    35   17   81 1    
    36   17   82 1    
    37   18   19 1    
    38   18   22 1    
    39   18   83 1    
    40   19   20 am   BACKBONE|DICT|INTERRES
    41   19   21 2    
    42   20   84 1    
    43   20   85 1    
    44   22   23 am   BACKBONE|DICT|INTERRES
    45   22   86 1    
    46   23   24 2    
    47   23   25 1    
    48   25   26 1    
    49   25   27 1    
    50   25   87 1    
    51   26   88 1    
    52   26   89 1    
    53   26   90 1    
    54   27   28 am   BACKBONE|DICT|INTERRES
    55   27   91 1    
    56   28   29 2    
    57   28   30 1    
    58   30   31 1    
    59   30   32 1    
    60   30   92 1    
    61   31   93 1    
    62   31   94 1    
    63   31   95 1    
    64   32   33 am   BACKBONE|DICT|INTERRES
    65   32   96 1    
    66   33   34 2    
    67   33   35 1    
    68   35   36 1    
    69   35   37 1    
    70   35   97 1    
    71   36   98 1    
    72   36   99 1    
    73   36  100 1    
    74   37   38 am   BACKBONE|DICT|INTERRES
    75   37  101 1    
    76   38   39 2    
    77   38   40 1    
    78   40   41 1    
    79   40   42 1    
    80   40  102 1    
    81   41  103 1    
    82   41  104 1    
    83   41  105 1    
    84   42   43 am   BACKBONE|DICT|INTERRES
    85   42  106 1    
    86   43   44 2    
    87   43   45 1    
    88   45   46 1    
    89   45   49 1    
    90   45  107 1    
    91   46   47 1    
    92   46  108 1    
    93   46  109 1    
    94   47   48 1    
    95   48  110 1    
    96   48  111 1    
    97   49   50 am   BACKBONE|DICT|INTERRES
    98   49  112 1    
    99   50   51 2    
   100   50   52 1    
   101   52   53 1    
   102   52   54 1    
   103   52  113 1    
   104   53  114 1    
   105   53  115 1    
   106   53  116 1    
   107   54   55 am   BACKBONE|DICT|INTERRES
   108   54  117 1    
   109   55   56 2    
   110   55   57 1    
   111   57   58 1    
   112   57   59 1    
   113   57  118 1    
   114   58  119 1    
   115   58  120 1    
   116   58  121 1    
   117   59   60 am   BACKBONE|DICT|INTERRES
   118   59  122 1    
   119   60   61 2    
   120   60   62 1    
   121   62   63 1    
   122   62   64 1    
   123   62  123 1    
   124   63  124 1    
   125   63  125 1    
   126   63  126 1    
   127   64   65 am   BACKBONE|DICT|INTERRES
   128   64  127 1    
   129   65   66 2    
@<TRIPOS>SUBSTRUCTURE
     1 UNK         1 GROUP             0       ****    0 ROOT    
