@<TRIPOS>MOLECULE
3R135
127   129    1
SMALL
USER_CHARGES


@<TRIPOS>ATOM
      1 CA        -80.1723   26.7917  -70.9792 C.3       0 UNK        -0.1998 
      2 C         -80.7519   26.6032  -72.3733 C.2       0 UNK         0.4909 
      3 O         -81.6870   25.8212  -72.5500 O.2       0 UNK        -0.5240 
      4 N         -80.2081   27.3254  -73.3610 N.am      1 UNK        -0.4739 
      5 CA        -80.6150   27.2849  -74.7713 C.3       1 UNK         0.0864 
      6 C6        -79.9431   28.3912  -75.6332 C.3       11 UNK        -0.0881 
      7 S7        -79.8426   30.0316  -74.8335 S.3       11 UNK        -0.2682 
      8 C8        -78.0439   30.3385  -74.8417 C.3       11 UNK         0.0289 
      9 C9        -77.3282   29.7216  -73.6449 C.ar      11 UNK        -0.0687 
     10 C10       -77.1969   28.3355  -73.5248 C.ar      11 UNK        -0.0823 
     11 C11       -76.5507   27.7678  -72.4242 C.ar      11 UNK        -0.0830 
     12 C12       -75.9949   28.6023  -71.4513 C.ar      11 UNK        -0.1021 
     13 C13       -76.0818   29.9924  -71.5772 C.ar      11 UNK        -0.0753 
     14 C14       -76.7618   30.5446  -72.6670 C.ar      11 UNK        -0.0933 
     15 C15       -75.4543   30.9068  -70.5363 C.3       11 UNK         0.0166 
     16 S16       -73.7785   31.4251  -71.0251 S.3       11 UNK        -0.2615 
     17 C17       -72.7852   30.0103  -70.4396 C.3       11 UNK        -0.0865 
     18 CA        -71.4281   29.8699  -71.1752 C.3       10 UNK         0.0862 
     19 C         -70.5506   28.7824  -70.4858 C.2       10 UNK         0.5551 
     20 N         -70.2658   27.6522  -71.1217 N.am      10 UNK        -0.7319 
     21 O         -70.1198   28.9728  -69.3511 O.2       10 UNK        -0.5018 
     22 N         -71.6080   29.6942  -72.6273 N.am      10 UNK        -0.4509 
     23 C         -70.6379   29.8392  -73.5403 C.2       10 UNK         0.4899 
     24 O         -69.4841   30.1733  -73.2690 O.2       10 UNK        -0.4839 
     25 CA        -71.0042   29.5533  -75.0062 C.3       9 UNK         0.0222 
     26 CB        -70.6504   28.1030  -75.3739 C.3       9 UNK        -0.1966 
     27 N         -72.4158   29.7882  -75.3100 N.am      9 UNK        -0.4218 
     28 C         -72.9961   30.9852  -75.4487 C.2       9 UNK         0.5020 
     29 O         -72.3920   32.0530  -75.3295 O.2       9 UNK        -0.5274 
     30 CA        -74.4979   30.9750  -75.8099 C.3       8 UNK         0.0270 
     31 CB        -75.0875   32.3949  -75.9113 C.3       8 UNK        -0.1976 
     32 N         -74.7859   30.2502  -77.0558 N.am      8 UNK        -0.4313 
     33 C         -74.7296   28.9213  -77.2126 C.2       8 UNK         0.5041 
     34 O         -74.4314   28.1435  -76.3013 O.2       8 UNK        -0.5577 
     35 CA        -75.0085   28.3658  -78.6158 C.3       7 UNK         0.0284 
     36 CB        -73.9374   28.8325  -79.6231 C.3       7 UNK        -0.1958 
     37 N         -75.0047   26.9091  -78.5185 N.am      7 UNK        -0.4454 
     38 C         -75.4743   26.0341  -79.4139 C.2       7 UNK         0.5089 
     39 O         -76.0013   26.3601  -80.4781 O.2       7 UNK        -0.5125 
     40 CA        -75.3195   24.5373  -79.0756 C.3       6 UNK         0.0408 
     41 CB        -74.0974   23.9522  -79.8019 C.3       6 UNK        -0.1791 
     42 N         -75.1931   24.2778  -77.6358 N.am      6 UNK        -0.4762 
     43 C         -76.2223   24.3086  -76.7779 C.2       6 UNK         0.5007 
     44 O         -77.3872   24.5026  -77.1278 O.2       6 UNK        -0.5032 
     45 CA        -75.8820   24.1530  -75.2858 C.3       5 UNK         0.0783 
     46 C46       -75.3526   25.5045  -74.7349 C.3       11 UNK        -0.0857 
     47 S47       -74.9770   25.5220  -72.9492 S.3       11 UNK        -0.2512 
     48 C48       -76.4966   26.2549  -72.2636 C.3       11 UNK         0.0225 
     49 N         -77.0672   23.6691  -74.5663 N.am      5 UNK        -0.4615 
     50 C         -77.0553   22.6398  -73.7094 C.2       4 UNK         0.5053 
     51 O         -76.0542   21.9584  -73.4838 O.2       4 UNK        -0.5105 
     52 CA        -78.3477   22.2961  -72.9541 C.3       4 UNK         0.0263 
     53 CB        -78.4763   23.1333  -71.6708 C.3       4 UNK        -0.1981 
     54 N         -79.5623   22.4572  -73.7566 N.am      4 UNK        -0.4224 
     55 C         -80.5178   21.5201  -73.8651 C.2       3 UNK         0.4895 
     56 O         -80.4306   20.3950  -73.3702 O.2       3 UNK        -0.5091 
     57 CA        -81.8118   21.8803  -74.6201 C.3       3 UNK         0.0250 
     58 CB        -82.9564   22.1339  -73.6247 C.3       3 UNK        -0.1996 
     59 N         -81.6801   23.0471  -75.4892 N.am      3 UNK        -0.4254 
     60 C         -81.0155   23.0659  -76.6513 C.2       2 UNK         0.5004 
     61 O         -80.5099   22.0679  -77.1656 O.2       2 UNK        -0.5226 
     62 CA        -80.8858   24.4282  -77.3569 C.3       2 UNK         0.0269 
     63 CB        -81.8706   24.5149  -78.5347 C.3       2 UNK        -0.1926 
     64 N         -81.0721   25.6038  -76.4929 N.am      2 UNK        -0.4687 
     65 C         -80.3410   25.9067  -75.4097 C.2       1 UNK         0.5165 
     66 O         -79.4678   25.1695  -74.9402 O.2       1 UNK        -0.5079 
     67 H67       -79.2809   27.4191  -70.9899 H         1 UNK         0.0900 
     68 H68       -80.9099   27.2611  -70.3291 H         1 UNK         0.0900 
     69 H69       -79.9039   25.8286  -70.5469 H         1 UNK         0.0900 
     70 H70       -79.4640   27.9752  -73.1496 H         1 UNK         0.2959 
     71 H71       -81.6946   27.4504  -74.7854 H         1 UNK         0.1079 
     72 H72       -78.9475   28.0891  -75.9615 H         1 UNK         0.0837 
     73 H73       -80.5090   28.5221  -76.5574 H         1 UNK         0.0837 
     74 H74       -77.8979   31.4191  -74.8442 H         1 UNK         0.0685 
     75 H75       -77.5990   29.9755  -75.7692 H         1 UNK         0.0685 
     76 H76       -77.6136   27.6884  -74.2797 H         1 UNK         0.1434 
     77 H77       -75.4965   28.1665  -70.5965 H         1 UNK         0.1329 
     78 H78       -76.8368   31.6196  -72.7581 H         1 UNK         0.1335 
     79 H79       -76.0727   31.7970  -70.4116 H         1 UNK         0.0680 
     80 H80       -75.4248   30.4201  -69.5601 H         1 UNK         0.0680 
     81 H81       -72.6290   30.1456  -69.3673 H         1 UNK         0.1032 
     82 H82       -73.3573   29.0888  -70.5471 H         1 UNK         0.1032 
     83 H83       -70.8897   30.8099  -71.0385 H         1 UNK         0.0461 
     84 H84       -70.6163   27.4882  -72.0511 H         1 UNK         0.3453 
     85 H85       -69.6948   26.9583  -70.6655 H         1 UNK         0.3453 
     86 H86       -72.5321   29.4318  -72.9362 H         1 UNK         0.2984 
     87 H87       -70.4056   30.2186  -75.6319 H         1 UNK         0.0554 
     88 H88       -69.5985   27.8936  -75.1743 H         1 UNK         0.0847 
     89 H89       -70.8221   27.9101  -76.4332 H         1 UNK         0.0847 
     90 H90       -71.2414   27.3847  -74.8039 H         1 UNK         0.0847 
     91 H91       -73.0052   28.9742  -75.4821 H         1 UNK         0.3141 
     92 H92       -75.0059   30.4598  -74.9939 H         1 UNK         0.0743 
     93 H93       -74.5882   32.9849  -76.6809 H         1 UNK         0.0784 
     94 H94       -76.1505   32.3737  -76.1481 H         1 UNK         0.0784 
     95 H95       -74.9773   32.9294  -74.9666 H         1 UNK         0.0784 
     96 H96       -74.9962   30.8211  -77.8620 H         1 UNK         0.3213 
     97 H97       -75.9979   28.7014  -78.9332 H         1 UNK         0.0855 
     98 H98       -72.9371   28.5248  -79.3153 H         1 UNK         0.0814 
     99 H99       -73.9290   29.9182  -79.7234 H         1 UNK         0.0814 
    100 H100      -74.1187   28.4253  -80.6178 H         1 UNK         0.0814 
    101 H101      -74.6379   26.5749  -77.6353 H         1 UNK         0.3105 
    102 H102      -76.2090   24.0228  -79.4462 H         1 UNK         0.0547 
    103 H103      -74.0101   22.8789  -79.6323 H         1 UNK         0.0837 
    104 H104      -73.1686   24.4222  -79.4763 H         1 UNK         0.0837 
    105 H105      -74.1765   24.1018  -80.8797 H         1 UNK         0.0837 
    106 H106      -74.2594   24.1124  -77.2863 H         1 UNK         0.3020 
    107 H107      -75.0797   23.4151  -75.2161 H         1 UNK         0.1245 
    108 H108      -76.0437   26.3119  -74.9698 H         1 UNK         0.0781 
    109 H109      -74.4214   25.7630  -75.2408 H         1 UNK         0.0781 
    110 H110      -76.5650   25.9949  -71.2062 H         1 UNK         0.0836 
    111 H111      -77.3646   25.8023  -72.7426 H         1 UNK         0.0836 
    112 H112      -77.9281   24.1750  -74.7652 H         1 UNK         0.3022 
    113 H113      -78.2367   21.2533  -72.6494 H         1 UNK         0.0747 
    114 H114      -79.2590   22.7385  -71.0229 H         1 UNK         0.0793 
    115 H115      -77.5476   23.1300  -71.0981 H         1 UNK         0.0793 
    116 H116      -78.7259   24.1690  -71.8942 H         1 UNK         0.0793 
    117 H117      -79.6953   23.3561  -74.2107 H         1 UNK         0.3047 
    118 H118      -82.0789   21.0202  -75.2380 H         1 UNK         0.0822 
    119 H119      -83.8990   22.3173  -74.1408 H         1 UNK         0.0807 
    120 H120      -82.7500   22.9931  -72.9844 H         1 UNK         0.0807 
    121 H121      -83.1081   21.2714  -72.9740 H         1 UNK         0.0807 
    122 H122      -82.0576   23.9177  -75.1434 H         1 UNK         0.2946 
    123 H123      -79.8725   24.4764  -77.7590 H         1 UNK         0.1144 
    124 H124      -81.7155   25.4232  -79.1172 H         1 UNK         0.0793 
    125 H125      -82.9072   24.5035  -78.1955 H         1 UNK         0.0793 
    126 H126      -81.7414   23.6722  -79.2156 H         1 UNK         0.0793 
    127 H127      -81.7711   26.2652  -76.8004 H         1 UNK         0.2896 
@<TRIPOS>BOND
     1    1    2 1    
     2    1   67 1    
     3    1   68 1    
     4    1   69 1    
     5    2    3 2    
     6    2    4 am   BACKBONE|DICT|INTERRES
     7    4    5 1    
     8    4   70 1    
     9    5    6 1    
    10    5   65 1    
    11    5   71 1    
    12    6    7 1    
    13    6   72 1    
    14    6   73 1    
    15    7    8 1    
    16    8    9 1    
    17    8   74 1    
    18    8   75 1    
    19    9   10 ar   
    20    9   14 ar   
    21   10   11 ar   
    22   10   76 1    
    23   11   12 ar   
    24   11   48 1    
    25   12   13 ar   
    26   12   77 1    
    27   13   14 ar   
    28   13   15 1    
    29   14   78 1    
    30   15   16 1    
    31   15   79 1    
    32   15   80 1    
    33   16   17 1    
    34   17   18 1    
    35   17   81 1    
    36   17   82 1    
    37   18   19 1    
    38   18   22 1    
    39   18   83 1    
    40   19   20 am   BACKBONE|DICT|INTERRES
    41   19   21 2    
    42   20   84 1    
    43   20   85 1    
    44   22   23 am   BACKBONE|DICT|INTERRES
    45   22   86 1    
    46   23   24 2    
    47   23   25 1    
    48   25   26 1    
    49   25   27 1    
    50   25   87 1    
    51   26   88 1    
    52   26   89 1    
    53   26   90 1    
    54   27   28 am   BACKBONE|DICT|INTERRES
    55   27   91 1    
    56   28   29 2    
    57   28   30 1    
    58   30   31 1    
    59   30   32 1    
    60   30   92 1    
    61   31   93 1    
    62   31   94 1    
    63   31   95 1    
    64   32   33 am   BACKBONE|DICT|INTERRES
    65   32   96 1    
    66   33   34 2    
    67   33   35 1    
    68   35   36 1    
    69   35   37 1    
    70   35   97 1    
    71   36   98 1    
    72   36   99 1    
    73   36  100 1    
    74   37   38 am   BACKBONE|DICT|INTERRES
    75   37  101 1    
    76   38   39 2    
    77   38   40 1    
    78   40   41 1    
    79   40   42 1    
    80   40  102 1    
    81   41  103 1    
    82   41  104 1    
    83   41  105 1    
    84   42   43 am   BACKBONE|DICT|INTERRES
    85   42  106 1    
    86   43   44 2    
    87   43   45 1    
    88   45   46 1    
    89   45   49 1    
    90   45  107 1    
    91   46   47 1    
    92   46  108 1    
    93   46  109 1    
    94   47   48 1    
    95   48  110 1    
    96   48  111 1    
    97   49   50 am   BACKBONE|DICT|INTERRES
    98   49  112 1    
    99   50   51 2    
   100   50   52 1    
   101   52   53 1    
   102   52   54 1    
   103   52  113 1    
   104   53  114 1    
   105   53  115 1    
   106   53  116 1    
   107   54   55 am   BACKBONE|DICT|INTERRES
   108   54  117 1    
   109   55   56 2    
   110   55   57 1    
   111   57   58 1    
   112   57   59 1    
   113   57  118 1    
   114   58  119 1    
   115   58  120 1    
   116   58  121 1    
   117   59   60 am   BACKBONE|DICT|INTERRES
   118   59  122 1    
   119   60   61 2    
   120   60   62 1    
   121   62   63 1    
   122   62   64 1    
   123   62  123 1    
   124   63  124 1    
   125   63  125 1    
   126   63  126 1    
   127   64   65 am   BACKBONE|DICT|INTERRES
   128   64  127 1    
   129   65   66 2    
@<TRIPOS>SUBSTRUCTURE
     1 UNK         1 GROUP             0       ****    0 ROOT    
