@<TRIPOS>MOLECULE
3R135
127   129    1
SMALL
USER_CHARGES


@<TRIPOS>ATOM
      1 CA        -80.8793   25.2156  -69.9353 C.3       0 UNK        -0.1998 
      2 C         -82.0872   25.5484  -70.7962 C.2       0 UNK         0.4909 
      3 O         -83.0458   24.7764  -70.8285 O.2       0 UNK        -0.5240 
      4 N         -82.0554   26.6979  -71.4836 N.am      1 UNK        -0.4739 
      5 CA        -83.1347   27.1741  -72.3581 C.3       1 UNK         0.0864 
      6 C6        -83.0560   28.7045  -72.5991 C.3       11 UNK        -0.0881 
      7 S7        -81.5026   29.2490  -73.3907 S.3       11 UNK        -0.2682 
      8 C8        -80.5771   29.9668  -71.9956 C.3       11 UNK         0.0289 
      9 C9        -79.0914   29.7083  -72.1804 C.ar      11 UNK        -0.0687 
     10 C10       -78.4564   28.6956  -71.4562 C.ar      11 UNK        -0.0823 
     11 C11       -77.1175   28.3789  -71.7046 C.ar      11 UNK        -0.0830 
     12 C12       -76.4110   29.1061  -72.6688 C.ar      11 UNK        -0.1021 
     13 C13       -77.0214   30.1508  -73.3723 C.ar      11 UNK        -0.0753 
     14 C14       -78.3633   30.4475  -73.1172 C.ar      11 UNK        -0.0933 
     15 C15       -76.2724   30.9162  -74.4599 C.3       11 UNK         0.0166 
     16 S16       -75.1316   32.1824  -73.8167 S.3       11 UNK        -0.2615 
     17 C17       -73.6103   31.2295  -73.4673 C.3       11 UNK        -0.0865 
     18 CA        -72.8292   30.7550  -74.7357 C.3       10 UNK         0.0862 
     19 C         -71.8617   31.8353  -75.3154 C.2       10 UNK         0.5551 
     20 N         -70.6880   31.4751  -75.8240 N.am      10 UNK        -0.7319 
     21 O         -72.1859   33.0199  -75.3340 O.2       10 UNK        -0.5018 
     22 N         -72.2152   29.4271  -74.5539 N.am      10 UNK        -0.4509 
     23 C         -71.2973   29.1207  -73.6248 C.2       10 UNK         0.4899 
     24 O         -70.9335   29.8956  -72.7397 O.2       10 UNK        -0.4839 
     25 CA        -70.6499   27.7262  -73.6896 C.3       9 UNK         0.0222 
     26 CB        -71.3750   26.7519  -72.7502 C.3       9 UNK        -0.1966 
     27 N         -70.5730   27.1420  -75.0317 N.am      9 UNK        -0.4218 
     28 C         -69.9025   27.6490  -76.0739 C.2       9 UNK         0.5020 
     29 O         -69.3285   28.7389  -76.0495 O.2       9 UNK        -0.5274 
     30 CA        -69.8591   26.8100  -77.3660 C.3       8 UNK         0.0270 
     31 CB        -68.7889   25.7042  -77.2752 C.3       8 UNK        -0.1976 
     32 N         -71.1599   26.2738  -77.7929 N.am      8 UNK        -0.4313 
     33 C         -71.9451   25.3729  -77.1852 C.2       8 UNK         0.5041 
     34 O         -71.6552   24.7930  -76.1359 O.2       8 UNK        -0.5577 
     35 CA        -73.3194   25.1323  -77.8364 C.3       7 UNK         0.0284 
     36 CB        -73.5962   23.6272  -77.9957 C.3       7 UNK        -0.1958 
     37 N         -74.4249   25.7408  -77.0883 N.am      7 UNK        -0.4454 
     38 C         -74.4824   26.9854  -76.5907 C.2       7 UNK         0.5089 
     39 O         -73.5906   27.8293  -76.6988 O.2       7 UNK        -0.5125 
     40 CA        -75.7627   27.3746  -75.8404 C.3       6 UNK         0.0408 
     41 CB        -76.7630   28.0575  -76.7844 C.3       6 UNK        -0.1791 
     42 N         -76.4242   26.2776  -75.1353 N.am      6 UNK        -0.4762 
     43 C         -75.9199   25.6503  -74.0623 C.2       6 UNK         0.5007 
     44 O         -74.7949   25.8554  -73.6106 O.2       6 UNK        -0.5032 
     45 CA        -76.8460   24.6323  -73.3756 C.3       5 UNK         0.0783 
     46 C46       -77.9124   25.3532  -72.5101 C.3       11 UNK        -0.0857 
     47 S47       -77.3605   25.7000  -70.8047 S.3       11 UNK        -0.2512 
     48 C48       -76.4158   27.2623  -70.9351 C.3       11 UNK         0.0225 
     49 N         -77.4604   23.7654  -74.3822 N.am      5 UNK        -0.4615 
     50 C         -76.8313   22.7462  -74.9849 C.2       4 UNK         0.5053 
     51 O         -75.7177   22.3402  -74.6535 O.2       4 UNK        -0.5105 
     52 CA        -77.5507   22.0695  -76.1675 C.3       4 UNK         0.0263 
     53 CB        -78.3063   20.8185  -75.6910 C.3       4 UNK        -0.1981 
     54 N         -78.4821   22.9555  -76.8707 N.am      4 UNK        -0.4224 
     55 C         -78.1332   24.0644  -77.5394 C.2       3 UNK         0.4895 
     56 O         -76.9688   24.4257  -77.7053 O.2       3 UNK        -0.5091 
     57 CA        -79.2764   24.9508  -78.0658 C.3       3 UNK         0.0250 
     58 CB        -79.5835   24.6116  -79.5328 C.3       3 UNK        -0.1996 
     59 N         -80.5132   24.8757  -77.2769 N.am      3 UNK        -0.4254 
     60 C         -80.6234   25.1825  -75.9762 C.2       2 UNK         0.5004 
     61 O         -79.6735   25.5277  -75.2665 O.2       2 UNK        -0.5226 
     62 CA        -82.0141   25.0061  -75.3583 C.3       2 UNK         0.0269 
     63 CB        -82.2732   23.5273  -75.0171 C.3       2 UNK        -0.1926 
     64 N         -82.1138   25.8066  -74.1416 N.am      2 UNK        -0.4687 
     65 C         -83.2348   26.3759  -73.6785 C.2       1 UNK         0.5165 
     66 O         -84.3271   26.2805  -74.2415 O.2       1 UNK        -0.5079 
     67 H67       -80.3257   24.3831  -70.3683 H         1 UNK         0.0900 
     68 H68       -81.1989   24.9275  -68.9342 H         1 UNK         0.0900 
     69 H69       -80.2043   26.0649  -69.8385 H         1 UNK         0.0900 
     70 H70       -81.2389   27.2891  -71.4423 H         1 UNK         0.2959 
     71 H71       -84.0754   26.9891  -71.8336 H         1 UNK         0.1079 
     72 H72       -83.1888   29.2342  -71.6546 H         1 UNK         0.0837 
     73 H73       -83.8882   29.0293  -73.2269 H         1 UNK         0.0837 
     74 H74       -80.7707   31.0392  -71.9432 H         1 UNK         0.0685 
     75 H75       -80.9193   29.5423  -71.0507 H         1 UNK         0.0685 
     76 H76       -79.0093   28.1307  -70.7194 H         1 UNK         0.1434 
     77 H77       -75.3860   28.8408  -72.8800 H         1 UNK         0.1329 
     78 H78       -78.8588   31.2281  -73.6784 H         1 UNK         0.1335 
     79 H79       -75.7303   30.2323  -75.1058 H         1 UNK         0.0680 
     80 H80       -76.9884   31.4172  -75.1132 H         1 UNK         0.0680 
     81 H81       -73.8811   30.3833  -72.8401 H         1 UNK         0.1032 
     82 H82       -72.9647   31.8389  -72.8321 H         1 UNK         0.1032 
     83 H83       -73.5487   30.5924  -75.5369 H         1 UNK         0.0461 
     84 H84       -70.3875   30.5072  -75.8187 H         1 UNK         0.3453 
     85 H85       -70.0805   32.1837  -76.2033 H         1 UNK         0.3453 
     86 H86       -72.4567   28.7361  -75.2578 H         1 UNK         0.2984 
     87 H87       -69.6240   27.8344  -73.3320 H         1 UNK         0.0554 
     88 H88       -71.4217   27.1461  -71.7341 H         1 UNK         0.0847 
     89 H89       -72.3981   26.5722  -73.0774 H         1 UNK         0.0847 
     90 H90       -70.8649   25.7898  -72.7017 H         1 UNK         0.0847 
     91 H91       -71.0284   26.2419  -75.1794 H         1 UNK         0.3141 
     92 H92       -69.5519   27.4900  -78.1624 H         1 UNK         0.0743 
     93 H93       -67.8096   26.1297  -77.0520 H         1 UNK         0.0784 
     94 H94       -69.0119   24.9801  -76.4910 H         1 UNK         0.0784 
     95 H95       -68.6993   25.1615  -78.2163 H         1 UNK         0.0784 
     96 H96       -71.5433   26.7282  -78.6108 H         1 UNK         0.3213 
     97 H97       -73.3190   25.5797  -78.8321 H         1 UNK         0.0855 
     98 H98       -72.7831   23.1328  -78.5289 H         1 UNK         0.0814 
     99 H99       -74.5104   23.4486  -78.5622 H         1 UNK         0.0814 
    100 H100      -73.7014   23.1337  -77.0282 H         1 UNK         0.0814 
    101 H101      -75.2603   25.1709  -76.9935 H         1 UNK         0.3105 
    102 H102      -75.4569   28.0897  -75.0810 H         1 UNK         0.0547 
    103 H103      -76.3148   28.9299  -77.2617 H         1 UNK         0.0837 
    104 H104      -77.0858   27.3856  -77.5793 H         1 UNK         0.0837 
    105 H105      -77.6481   28.4003  -76.2474 H         1 UNK         0.0837 
    106 H106      -77.3637   26.0437  -75.4296 H         1 UNK         0.3020 
    107 H107      -76.2297   24.0070  -72.7249 H         1 UNK         0.1245 
    108 H108      -78.7876   24.7099  -72.4075 H         1 UNK         0.0781 
    109 H109      -78.2904   26.2603  -72.9854 H         1 UNK         0.0781 
    110 H110      -75.4426   27.0432  -71.3746 H         1 UNK         0.0836 
    111 H111      -76.2090   27.6209  -69.9261 H         1 UNK         0.0836 
    112 H112      -78.3600   24.0711  -74.7359 H         1 UNK         0.3022 
    113 H113      -76.7842   21.7590  -76.8810 H         1 UNK         0.0747 
    114 H114      -78.7520   20.2804  -76.5278 H         1 UNK         0.0793 
    115 H115      -77.6325   20.1253  -75.1851 H         1 UNK         0.0793 
    116 H116      -79.1024   21.0698  -74.9889 H         1 UNK         0.0793 
    117 H117      -79.4641   22.7355  -76.7956 H         1 UNK         0.3047 
    118 H118      -78.9299   25.9845  -78.0220 H         1 UNK         0.0822 
    119 H119      -80.3170   25.2988  -79.9550 H         1 UNK         0.0807 
    120 H120      -79.9698   23.5973  -79.6417 H         1 UNK         0.0807 
    121 H121      -78.6843   24.6852  -80.1466 H         1 UNK         0.0807 
    122 H122      -81.3416   24.5833  -77.7759 H         1 UNK         0.2946 
    123 H123      -82.7540   25.3520  -76.0841 H         1 UNK         0.1144 
    124 H124      -83.2655   23.3889  -74.5871 H         1 UNK         0.0793 
    125 H125      -81.5446   23.1465  -74.3000 H         1 UNK         0.0793 
    126 H126      -82.2188   22.8987  -75.9067 H         1 UNK         0.0793 
    127 H127      -81.2350   25.9867  -73.6737 H         1 UNK         0.2896 
@<TRIPOS>BOND
     1    1    2 1    
     2    1   67 1    
     3    1   68 1    
     4    1   69 1    
     5    2    3 2    
     6    2    4 am   BACKBONE|DICT|INTERRES
     7    4    5 1    
     8    4   70 1    
     9    5    6 1    
    10    5   65 1    
    11    5   71 1    
    12    6    7 1    
    13    6   72 1    
    14    6   73 1    
    15    7    8 1    
    16    8    9 1    
    17    8   74 1    
    18    8   75 1    
    19    9   10 ar   
    20    9   14 ar   
    21   10   11 ar   
    22   10   76 1    
    23   11   12 ar   
    24   11   48 1    
    25   12   13 ar   
    26   12   77 1    
    27   13   14 ar   
    28   13   15 1    
    29   14   78 1    
    30   15   16 1    
    31   15   79 1    
    32   15   80 1    
    33   16   17 1    
    34   17   18 1    
    35   17   81 1    
    36   17   82 1    
    37   18   19 1    
    38   18   22 1    
    39   18   83 1    
    40   19   20 am   BACKBONE|DICT|INTERRES
    41   19   21 2    
    42   20   84 1    
    43   20   85 1    
    44   22   23 am   BACKBONE|DICT|INTERRES
    45   22   86 1    
    46   23   24 2    
    47   23   25 1    
    48   25   26 1    
    49   25   27 1    
    50   25   87 1    
    51   26   88 1    
    52   26   89 1    
    53   26   90 1    
    54   27   28 am   BACKBONE|DICT|INTERRES
    55   27   91 1    
    56   28   29 2    
    57   28   30 1    
    58   30   31 1    
    59   30   32 1    
    60   30   92 1    
    61   31   93 1    
    62   31   94 1    
    63   31   95 1    
    64   32   33 am   BACKBONE|DICT|INTERRES
    65   32   96 1    
    66   33   34 2    
    67   33   35 1    
    68   35   36 1    
    69   35   37 1    
    70   35   97 1    
    71   36   98 1    
    72   36   99 1    
    73   36  100 1    
    74   37   38 am   BACKBONE|DICT|INTERRES
    75   37  101 1    
    76   38   39 2    
    77   38   40 1    
    78   40   41 1    
    79   40   42 1    
    80   40  102 1    
    81   41  103 1    
    82   41  104 1    
    83   41  105 1    
    84   42   43 am   BACKBONE|DICT|INTERRES
    85   42  106 1    
    86   43   44 2    
    87   43   45 1    
    88   45   46 1    
    89   45   49 1    
    90   45  107 1    
    91   46   47 1    
    92   46  108 1    
    93   46  109 1    
    94   47   48 1    
    95   48  110 1    
    96   48  111 1    
    97   49   50 am   BACKBONE|DICT|INTERRES
    98   49  112 1    
    99   50   51 2    
   100   50   52 1    
   101   52   53 1    
   102   52   54 1    
   103   52  113 1    
   104   53  114 1    
   105   53  115 1    
   106   53  116 1    
   107   54   55 am   BACKBONE|DICT|INTERRES
   108   54  117 1    
   109   55   56 2    
   110   55   57 1    
   111   57   58 1    
   112   57   59 1    
   113   57  118 1    
   114   58  119 1    
   115   58  120 1    
   116   58  121 1    
   117   59   60 am   BACKBONE|DICT|INTERRES
   118   59  122 1    
   119   60   61 2    
   120   60   62 1    
   121   62   63 1    
   122   62   64 1    
   123   62  123 1    
   124   63  124 1    
   125   63  125 1    
   126   63  126 1    
   127   64   65 am   BACKBONE|DICT|INTERRES
   128   64  127 1    
   129   65   66 2    
@<TRIPOS>SUBSTRUCTURE
     1 UNK         1 GROUP             0       ****    0 ROOT    
