@<TRIPOS>MOLECULE
3R135
127   129    1
SMALL
USER_CHARGES


@<TRIPOS>ATOM
      1 CA        -80.3103   22.8917  -70.5955 C.3       0 UNK        -0.1998 
      2 C         -80.2295   23.9523  -71.6816 C.2       0 UNK         0.4909 
      3 O         -79.3610   23.8655  -72.5494 O.2       0 UNK        -0.5240 
      4 N         -81.1399   24.9366  -71.6490 N.am      1 UNK        -0.4739 
      5 CA        -81.2242   26.1012  -72.5469 C.3       1 UNK         0.0864 
      6 C6        -80.1400   27.1702  -72.2678 C.3       11 UNK        -0.0881 
      7 S7        -80.1458   27.8379  -70.5712 S.3       11 UNK        -0.2682 
      8 C8        -78.4084   28.3927  -70.3853 C.3       11 UNK         0.0289 
      9 C9        -77.8611   29.2488  -71.5327 C.ar      11 UNK        -0.0687 
     10 C10       -78.6884   30.0832  -72.2964 C.ar      11 UNK        -0.0823 
     11 C11       -78.1820   30.7787  -73.3974 C.ar      11 UNK        -0.0830 
     12 C12       -76.8143   30.7299  -73.6688 C.ar      11 UNK        -0.1021 
     13 C13       -75.9740   29.9079  -72.9175 C.ar      11 UNK        -0.0753 
     14 C14       -76.5001   29.1715  -71.8513 C.ar      11 UNK        -0.0933 
     15 C15       -74.5247   29.7454  -73.3377 C.3       11 UNK         0.0166 
     16 S16       -73.4207   30.9397  -72.5285 S.3       11 UNK        -0.2615 
     17 C17       -72.8615   30.0027  -71.0653 C.3       11 UNK        -0.0865 
     18 CA        -71.4402   29.3931  -71.2612 C.3       10 UNK         0.0862 
     19 C         -70.8075   28.8907  -69.9254 C.2       10 UNK         0.5551 
     20 N         -69.9506   27.8767  -69.9437 N.am      10 UNK        -0.7319 
     21 O         -71.0663   29.4458  -68.8601 O.2       10 UNK        -0.5018 
     22 N         -71.3761   28.4283  -72.3782 N.am      10 UNK        -0.4509 
     23 C         -71.9942   27.2413  -72.4337 C.2       10 UNK         0.4899 
     24 O         -72.7211   26.8003  -71.5424 O.2       10 UNK        -0.4839 
     25 CA        -71.7900   26.4361  -73.7270 C.3       9 UNK         0.0222 
     26 CB        -72.2988   24.9873  -73.6098 C.3       9 UNK        -0.1966 
     27 N         -72.4638   27.0849  -74.8516 N.am      9 UNK        -0.4218 
     28 C         -71.9329   28.0312  -75.6372 C.2       9 UNK         0.5020 
     29 O         -70.8170   28.5220  -75.4518 O.2       9 UNK        -0.5274 
     30 CA        -72.8001   28.4835  -76.8314 C.3       8 UNK         0.0270 
     31 CB        -72.0286   29.3328  -77.8638 C.3       8 UNK        -0.1976 
     32 N         -73.4875   27.3504  -77.4666 N.am      8 UNK        -0.4313 
     33 C         -72.9303   26.2999  -78.0883 C.2       8 UNK         0.5041 
     34 O         -71.7286   26.2028  -78.3404 O.2       8 UNK        -0.5577 
     35 CA        -73.8583   25.1287  -78.4601 C.3       7 UNK         0.0284 
     36 CB        -73.6831   23.9808  -77.4515 C.3       7 UNK        -0.1958 
     37 N         -75.2778   25.4877  -78.5241 N.am      7 UNK        -0.4454 
     38 C         -75.8477   26.1767  -79.5224 C.2       7 UNK         0.5089 
     39 O         -75.2360   26.5917  -80.5070 O.2       7 UNK        -0.5125 
     40 CA        -77.3533   26.4637  -79.3887 C.3       6 UNK         0.0408 
     41 CB        -78.1875   25.2303  -79.7714 C.3       6 UNK        -0.1791 
     42 N         -77.7094   26.9029  -78.0378 N.am      6 UNK        -0.4762 
     43 C         -77.4196   28.1139  -77.5376 C.2       6 UNK         0.5007 
     44 O         -76.8682   29.0022  -78.1878 O.2       6 UNK        -0.5032 
     45 CA        -77.7558   28.3596  -76.0526 C.3       5 UNK         0.0783 
     46 C46       -79.1319   29.0554  -75.8619 C.3       11 UNK        -0.0857 
     47 S47       -79.0308   30.8738  -76.0609 S.3       11 UNK        -0.2512 
     48 C48       -79.1256   31.5096  -74.3441 C.3       11 UNK         0.0225 
     49 N         -77.6170   27.1330  -75.2540 N.am      5 UNK        -0.4615 
     50 C         -76.4225   26.6100  -74.9333 C.2       4 UNK         0.5053 
     51 O         -75.3489   27.1263  -75.2432 O.2       4 UNK        -0.5105 
     52 CA        -76.3807   25.2684  -74.1913 C.3       4 UNK         0.0263 
     53 CB        -76.2852   25.4648  -72.6707 C.3       4 UNK        -0.1981 
     54 N         -77.4711   24.3534  -74.5289 N.am      4 UNK        -0.4224 
     55 C         -77.5901   23.7508  -75.7205 C.2       3 UNK         0.4895 
     56 O         -76.8976   24.0342  -76.6975 O.2       3 UNK        -0.5091 
     57 CA        -78.6423   22.6431  -75.8430 C.3       3 UNK         0.0250 
     58 CB        -78.2736   21.4331  -74.9676 C.3       3 UNK        -0.1996 
     59 N         -79.9600   23.1410  -75.4627 N.am      3 UNK        -0.4254 
     60 C         -80.8871   23.5708  -76.3293 C.2       2 UNK         0.5004 
     61 O         -80.7555   23.5300  -77.5531 O.2       2 UNK        -0.5226 
     62 CA        -82.1869   24.1520  -75.7398 C.3       2 UNK         0.0269 
     63 CB        -83.3013   23.0929  -75.7514 C.3       2 UNK        -0.1926 
     64 N         -82.0487   24.6880  -74.3807 N.am      2 UNK        -0.4687 
     65 C         -81.2528   25.7127  -74.0437 C.2       1 UNK         0.5165 
     66 O         -80.5322   26.3027  -74.8531 O.2       1 UNK        -0.5079 
     67 H67       -79.3815   22.8705  -70.0265 H         1 UNK         0.0900 
     68 H68       -81.1298   23.0783  -69.9019 H         1 UNK         0.0900 
     69 H69       -80.4588   21.9091  -71.0424 H         1 UNK         0.0900 
     70 H70       -81.8278   24.9288  -70.9085 H         1 UNK         0.2959 
     71 H71       -82.1926   26.5648  -72.3517 H         1 UNK         0.1079 
     72 H72       -79.1523   26.7795  -72.5024 H         1 UNK         0.0837 
     73 H73       -80.2997   28.0178  -72.9321 H         1 UNK         0.0837 
     74 H74       -78.3216   28.9588  -69.4573 H         1 UNK         0.0685 
     75 H75       -77.7888   27.5029  -70.2623 H         1 UNK         0.0685 
     76 H76       -79.7437   30.1462  -72.0722 H         1 UNK         0.1434 
     77 H77       -76.4187   31.2702  -74.5182 H         1 UNK         0.1329 
     78 H78       -75.8525   28.5156  -71.2861 H         1 UNK         0.1335 
     79 H79       -74.4441   29.8843  -74.4154 H         1 UNK         0.0680 
     80 H80       -74.2019   28.7242  -73.1475 H         1 UNK         0.0680 
     81 H81       -72.8647   30.7045  -70.2296 H         1 UNK         0.1032 
     82 H82       -73.5864   29.2314  -70.8036 H         1 UNK         0.1032 
     83 H83       -70.7865   30.2122  -71.5631 H         1 UNK         0.0461 
     84 H84       -69.5361   27.5634  -69.0801 H         1 UNK         0.3453 
     85 H85       -69.7182   27.4215  -70.8115 H         1 UNK         0.3453 
     86 H86       -70.8296   28.7149  -73.1812 H         1 UNK         0.2984 
     87 H87       -70.7168   26.3913  -73.9245 H         1 UNK         0.0554 
     88 H88       -71.7873   24.4603  -72.8035 H         1 UNK         0.0847 
     89 H89       -72.1183   24.4273  -74.5275 H         1 UNK         0.0847 
     90 H90       -73.3663   24.9471  -73.3955 H         1 UNK         0.0847 
     91 H91       -73.4350   26.8348  -75.0151 H         1 UNK         0.3141 
     92 H92       -73.5869   29.1145  -76.4187 H         1 UNK         0.0743 
     93 H93       -71.6449   30.2455  -77.4064 H         1 UNK         0.0784 
     94 H94       -71.1748   28.7957  -78.2775 H         1 UNK         0.0784 
     95 H95       -72.6721   29.6305  -78.6916 H         1 UNK         0.0784 
     96 H96       -74.4762   27.2850  -77.2577 H         1 UNK         0.3213 
     97 H97       -73.5510   24.7687  -79.4444 H         1 UNK         0.0855 
     98 H98       -73.9814   24.2800  -76.4463 H         1 UNK         0.0814 
     99 H99       -72.6423   23.6580  -77.4008 H         1 UNK         0.0814 
    100 H100      -74.2786   23.1117  -77.7316 H         1 UNK         0.0814 
    101 H101      -75.8765   25.1135  -77.7893 H         1 UNK         0.3105 
    102 H102      -77.6044   27.2651  -80.0871 H         1 UNK         0.0547 
    103 H103      -79.2554   25.4466  -79.7355 H         1 UNK         0.0837 
    104 H104      -77.9573   24.9053  -80.7868 H         1 UNK         0.0837 
    105 H105      -77.9985   24.3847  -79.1096 H         1 UNK         0.0837 
    106 H106      -78.1249   26.2135  -77.4269 H         1 UNK         0.3020 
    107 H107      -76.9861   29.0441  -75.6951 H         1 UNK         0.1245 
    108 H108      -79.5230   28.8509  -74.8676 H         1 UNK         0.0781 
    109 H109      -79.8793   28.6568  -76.5506 H         1 UNK         0.0781 
    110 H110      -80.1582   31.4290  -74.0008 H         1 UNK         0.0836 
    111 H111      -78.8830   32.5730  -74.3433 H         1 UNK         0.0836 
    112 H112      -78.4734   26.6561  -74.9929 H         1 UNK         0.3022 
    113 H113      -75.4576   24.7776  -74.5044 H         1 UNK         0.0747 
    114 H114      -75.4712   26.1447  -72.4142 H         1 UNK         0.0793 
    115 H115      -77.1980   25.8775  -72.2492 H         1 UNK         0.0793 
    116 H116      -76.0867   24.5199  -72.1648 H         1 UNK         0.0793 
    117 H117      -78.1162   24.1069  -73.7774 H         1 UNK         0.3047 
    118 H118      -78.6513   22.3083  -76.8828 H         1 UNK         0.0822 
    119 H119      -77.2814   21.0567  -75.2208 H         1 UNK         0.0807 
    120 H120      -78.9771   20.6135  -75.1142 H         1 UNK         0.0807 
    121 H121      -78.2682   21.6797  -73.9051 H         1 UNK         0.0807 
    122 H122      -80.1259   23.2697  -74.4717 H         1 UNK         0.2946 
    123 H123      -82.4880   24.9762  -76.3906 H         1 UNK         0.1144 
    124 H124      -84.2542   23.5143  -75.4305 H         1 UNK         0.0793 
    125 H125      -83.0662   22.2527  -75.0967 H         1 UNK         0.0793 
    126 H126      -83.4489   22.6922  -76.7554 H         1 UNK         0.0793 
    127 H127      -82.5859   24.2374  -73.6534 H         1 UNK         0.2896 
@<TRIPOS>BOND
     1    1    2 1    
     2    1   67 1    
     3    1   68 1    
     4    1   69 1    
     5    2    3 2    
     6    2    4 am   BACKBONE|DICT|INTERRES
     7    4    5 1    
     8    4   70 1    
     9    5    6 1    
    10    5   65 1    
    11    5   71 1    
    12    6    7 1    
    13    6   72 1    
    14    6   73 1    
    15    7    8 1    
    16    8    9 1    
    17    8   74 1    
    18    8   75 1    
    19    9   10 ar   
    20    9   14 ar   
    21   10   11 ar   
    22   10   76 1    
    23   11   12 ar   
    24   11   48 1    
    25   12   13 ar   
    26   12   77 1    
    27   13   14 ar   
    28   13   15 1    
    29   14   78 1    
    30   15   16 1    
    31   15   79 1    
    32   15   80 1    
    33   16   17 1    
    34   17   18 1    
    35   17   81 1    
    36   17   82 1    
    37   18   19 1    
    38   18   22 1    
    39   18   83 1    
    40   19   20 am   BACKBONE|DICT|INTERRES
    41   19   21 2    
    42   20   84 1    
    43   20   85 1    
    44   22   23 am   BACKBONE|DICT|INTERRES
    45   22   86 1    
    46   23   24 2    
    47   23   25 1    
    48   25   26 1    
    49   25   27 1    
    50   25   87 1    
    51   26   88 1    
    52   26   89 1    
    53   26   90 1    
    54   27   28 am   BACKBONE|DICT|INTERRES
    55   27   91 1    
    56   28   29 2    
    57   28   30 1    
    58   30   31 1    
    59   30   32 1    
    60   30   92 1    
    61   31   93 1    
    62   31   94 1    
    63   31   95 1    
    64   32   33 am   BACKBONE|DICT|INTERRES
    65   32   96 1    
    66   33   34 2    
    67   33   35 1    
    68   35   36 1    
    69   35   37 1    
    70   35   97 1    
    71   36   98 1    
    72   36   99 1    
    73   36  100 1    
    74   37   38 am   BACKBONE|DICT|INTERRES
    75   37  101 1    
    76   38   39 2    
    77   38   40 1    
    78   40   41 1    
    79   40   42 1    
    80   40  102 1    
    81   41  103 1    
    82   41  104 1    
    83   41  105 1    
    84   42   43 am   BACKBONE|DICT|INTERRES
    85   42  106 1    
    86   43   44 2    
    87   43   45 1    
    88   45   46 1    
    89   45   49 1    
    90   45  107 1    
    91   46   47 1    
    92   46  108 1    
    93   46  109 1    
    94   47   48 1    
    95   48  110 1    
    96   48  111 1    
    97   49   50 am   BACKBONE|DICT|INTERRES
    98   49  112 1    
    99   50   51 2    
   100   50   52 1    
   101   52   53 1    
   102   52   54 1    
   103   52  113 1    
   104   53  114 1    
   105   53  115 1    
   106   53  116 1    
   107   54   55 am   BACKBONE|DICT|INTERRES
   108   54  117 1    
   109   55   56 2    
   110   55   57 1    
   111   57   58 1    
   112   57   59 1    
   113   57  118 1    
   114   58  119 1    
   115   58  120 1    
   116   58  121 1    
   117   59   60 am   BACKBONE|DICT|INTERRES
   118   59  122 1    
   119   60   61 2    
   120   60   62 1    
   121   62   63 1    
   122   62   64 1    
   123   62  123 1    
   124   63  124 1    
   125   63  125 1    
   126   63  126 1    
   127   64   65 am   BACKBONE|DICT|INTERRES
   128   64  127 1    
   129   65   66 2    
@<TRIPOS>SUBSTRUCTURE
     1 UNK         1 GROUP             0       ****    0 ROOT    
