@<TRIPOS>MOLECULE
3R135
127   129    1
SMALL
USER_CHARGES


@<TRIPOS>ATOM
      1 CA        -81.9574   28.2141  -80.5042 C.3       0 UNK        -0.1998 
      2 C         -81.4748   27.5015  -79.2493 C.2       0 UNK         0.4909 
      3 O         -81.5102   26.2712  -79.1940 O.2       0 UNK        -0.5240 
      4 N         -81.0237   28.2657  -78.2458 N.am      1 UNK        -0.4739 
      5 CA        -80.5560   27.7527  -76.9537 C.3       1 UNK         0.0864 
      6 C6        -79.6121   28.7660  -76.2511 C.3       11 UNK        -0.0881 
      7 S7        -78.3039   27.9289  -75.2952 S.3       11 UNK        -0.2682 
      8 C8        -78.5996   28.5353  -73.6023 C.3       11 UNK         0.0289 
      9 C9        -77.5207   28.0695  -72.6295 C.ar      11 UNK        -0.0687 
     10 C10       -77.1389   26.7248  -72.5800 C.ar      11 UNK        -0.0823 
     11 C11       -76.1357   26.2966  -71.7053 C.ar      11 UNK        -0.0830 
     12 C12       -75.5455   27.2175  -70.8362 C.ar      11 UNK        -0.1021 
     13 C13       -75.9264   28.5626  -70.8618 C.ar      11 UNK        -0.0753 
     14 C14       -76.9092   28.9832  -71.7647 C.ar      11 UNK        -0.0933 
     15 C15       -75.2963   29.5603  -69.9007 C.3       11 UNK         0.0166 
     16 S16       -73.8572   30.3994  -70.6321 S.3       11 UNK        -0.2615 
     17 C17       -72.5321   29.1762  -70.3374 C.3       11 UNK        -0.0865 
     18 CA        -71.2344   29.5130  -71.1142 C.3       10 UNK         0.0862 
     19 C         -70.0950   28.5271  -70.7384 C.2       10 UNK         0.5551 
     20 N         -69.3092   28.8498  -69.7205 N.am      10 UNK        -0.7319 
     21 O         -69.9466   27.4588  -71.3289 O.2       10 UNK        -0.5018 
     22 N         -71.4938   29.5588  -72.5570 N.am      10 UNK        -0.4509 
     23 C         -70.6595   30.0149  -73.4982 C.2       10 UNK         0.4899 
     24 O         -69.5387   30.4693  -73.2663 O.2       10 UNK        -0.4839 
     25 CA        -71.1708   29.9738  -74.9508 C.3       9 UNK         0.0222 
     26 CB        -70.5556   28.7832  -75.7039 C.3       9 UNK        -0.1966 
     27 N         -72.6314   29.8899  -75.0413 N.am      9 UNK        -0.4218 
     28 C         -73.4926   30.8739  -74.7552 C.2       9 UNK         0.5020 
     29 O         -73.1469   32.0207  -74.4650 O.2       9 UNK        -0.5274 
     30 CA        -74.9877   30.4991  -74.8099 C.3       8 UNK         0.0270 
     31 CB        -75.9105   31.6577  -74.3889 C.3       8 UNK        -0.1976 
     32 N         -75.3997   30.0144  -76.1309 N.am      8 UNK        -0.4313 
     33 C         -75.1176   28.8045  -76.6280 C.2       8 UNK         0.5041 
     34 O         -74.4041   27.9760  -76.0526 O.2       8 UNK        -0.5577 
     35 CA        -75.7142   28.4638  -77.9962 C.3       7 UNK         0.0284 
     36 CB        -74.7609   28.8658  -79.1332 C.3       7 UNK        -0.1958 
     37 N         -75.9257   27.0239  -78.0171 N.am      7 UNK        -0.4454 
     38 C         -76.9740   26.3795  -78.5313 C.2       7 UNK         0.5089 
     39 O         -77.8391   26.9302  -79.2121 O.2       7 UNK        -0.5125 
     40 CA        -77.1167   24.8753  -78.2177 C.3       6 UNK         0.0408 
     41 CB        -76.6702   24.0152  -79.4154 C.3       6 UNK        -0.1791 
     42 N         -76.4833   24.4229  -76.9663 N.am      6 UNK        -0.4762 
     43 C         -75.1762   24.3453  -76.6566 C.2       6 UNK         0.5007 
     44 O         -74.2721   24.6827  -77.4203 O.2       6 UNK        -0.5032 
     45 CA        -74.8115   23.8337  -75.2448 C.3       5 UNK         0.0783 
     46 C46       -74.5614   25.0436  -74.3103 C.3       11 UNK        -0.0857 
     47 S47       -74.1227   24.5864  -72.5969 S.3       11 UNK        -0.2512 
     48 C48       -75.6900   24.8401  -71.6984 C.3       11 UNK         0.0225 
     49 N         -75.8185   22.9065  -74.7151 N.am      5 UNK        -0.4615 
     50 C         -76.0954   21.7021  -75.2308 C.2       4 UNK         0.5053 
     51 O         -75.4445   21.1932  -76.1439 O.2       4 UNK        -0.5105 
     52 CA        -77.2986   20.9250  -74.6577 C.3       4 UNK         0.0263 
     53 CB        -76.8092   19.6908  -73.8805 C.3       4 UNK        -0.1981 
     54 N         -78.2377   21.6709  -73.8058 N.am      4 UNK        -0.4224 
     55 C         -78.9056   22.7911  -74.1152 C.2       3 UNK         0.4895 
     56 O         -78.7092   23.4599  -75.1355 O.2       3 UNK        -0.5091 
     57 CA        -79.9671   23.2423  -73.1013 C.3       3 UNK         0.0250 
     58 CB        -79.3569   23.5940  -71.7274 C.3       3 UNK        -0.1996 
     59 N         -80.6710   24.3928  -73.6570 N.am      3 UNK        -0.4254 
     60 C         -81.8182   24.9200  -73.2114 C.2       2 UNK         0.5004 
     61 O         -82.4553   24.4562  -72.2646 O.2       2 UNK        -0.5226 
     62 CA        -82.3449   26.1780  -73.9250 C.3       2 UNK         0.0269 
     63 CB        -82.6856   27.2977  -72.9215 C.3       2 UNK        -0.1926 
     64 N         -81.3980   26.6841  -74.9237 N.am      2 UNK        -0.4687 
     65 C         -81.7329   27.3263  -76.0467 C.2       1 UNK         0.5165 
     66 O         -82.8976   27.5971  -76.3536 O.2       1 UNK        -0.5079 
     67 H67       -81.8699   29.2970  -80.4179 H         1 UNK         0.0900 
     68 H68       -81.3708   27.8945  -81.3651 H         1 UNK         0.0900 
     69 H69       -83.0028   27.9723  -80.6944 H         1 UNK         0.0900 
     70 H70       -81.0553   29.2709  -78.3359 H         1 UNK         0.2959 
     71 H71       -79.9851   26.8467  -77.1733 H         1 UNK         0.1079 
     72 H72       -80.1626   29.4732  -75.6269 H         1 UNK         0.0837 
     73 H73       -79.0939   29.3745  -76.9941 H         1 UNK         0.0837 
     74 H74       -79.5700   28.1861  -73.2502 H         1 UNK         0.0685 
     75 H75       -78.6469   29.6250  -73.6249 H         1 UNK         0.0685 
     76 H76       -77.6069   26.0153  -73.2478 H         1 UNK         0.1434 
     77 H77       -74.7850   26.8844  -70.1437 H         1 UNK         0.1329 
     78 H78       -77.2000   30.0245  -71.7878 H         1 UNK         0.1335 
     79 H79       -75.0053   29.0682  -68.9712 H         1 UNK         0.0680 
     80 H80       -76.0341   30.3148  -69.6235 H         1 UNK         0.0680 
     81 H81       -72.3384   29.1419  -69.2635 H         1 UNK         0.1032 
     82 H82       -72.8857   28.1833  -70.6179 H         1 UNK         0.1032 
     83 H83       -70.9159   30.5153  -70.8198 H         1 UNK         0.0461 
     84 H84       -69.4285   29.7194  -69.2241 H         1 UNK         0.3453 
     85 H85       -68.5731   28.2164  -69.4495 H         1 UNK         0.3453 
     86 H86       -72.3898   29.2020  -72.8508 H         1 UNK         0.2984 
     87 H87       -70.8505   30.8950  -75.4415 H         1 UNK         0.0554 
     88 H88       -69.4658   28.8286  -75.6830 H         1 UNK         0.0847 
     89 H89       -70.8590   28.7756  -76.7510 H         1 UNK         0.0847 
     90 H90       -70.8509   27.8304  -75.2621 H         1 UNK         0.0847 
     91 H91       -73.0369   28.9987  -75.3264 H         1 UNK         0.3141 
     92 H92       -75.1362   29.6900  -74.0905 H         1 UNK         0.0743 
     93 H93       -75.8186   32.5132  -75.0591 H         1 UNK         0.0784 
     94 H94       -76.9555   31.3483  -74.3780 H         1 UNK         0.0784 
     95 H95       -75.6666   32.0015  -73.3825 H         1 UNK         0.0784 
     96 H96       -75.9540   30.6504  -76.6857 H         1 UNK         0.3213 
     97 H97       -76.6690   28.9827  -78.1070 H         1 UNK         0.0855 
     98 H98       -73.7921   28.3733  -79.0383 H         1 UNK         0.0814 
     99 H99       -74.5833   29.9418  -79.1342 H         1 UNK         0.0814 
    100 H100      -75.1754   28.6036  -80.1067 H         1 UNK         0.0814 
    101 H101      -75.2556   26.4952  -77.4672 H         1 UNK         0.3105 
    102 H102      -78.1839   24.6994  -78.0723 H         1 UNK         0.0547 
    103 H103      -76.8274   22.9541  -79.2225 H         1 UNK         0.0837 
    104 H104      -75.6165   24.1618  -79.6538 H         1 UNK         0.0837 
    105 H105      -77.2406   24.2707  -80.3093 H         1 UNK         0.0837 
    106 H106      -77.1440   24.1279  -76.2522 H         1 UNK         0.3020 
    107 H107      -73.8753   23.2787  -75.3401 H         1 UNK         0.1245 
    108 H108      -75.4184   25.7155  -74.3147 H         1 UNK         0.0781 
    109 H109      -73.7325   25.6401  -74.6969 H         1 UNK         0.0781 
    110 H110      -75.5614   24.5064  -70.6676 H         1 UNK         0.0836 
    111 H111      -76.4559   24.1962  -72.1283 H         1 UNK         0.0836 
    112 H112      -76.3996   23.2491  -73.9675 H         1 UNK         0.3022 
    113 H113      -77.8708   20.5753  -75.5193 H         1 UNK         0.0747 
    114 H114      -77.6403   19.0514  -73.5822 H         1 UNK         0.0793 
    115 H115      -76.1408   19.0802  -74.4896 H         1 UNK         0.0793 
    116 H116      -76.2611   19.9740  -72.9808 H         1 UNK         0.0793 
    117 H117      -78.4689   21.2210  -72.9315 H         1 UNK         0.3047 
    118 H118      -80.6776   22.4213  -72.9839 H         1 UNK         0.0822 
    119 H119      -80.1360   23.7446  -70.9801 H         1 UNK         0.0807 
    120 H120      -78.7703   24.5097  -71.7683 H         1 UNK         0.0807 
    121 H121      -78.7110   22.8016  -71.3483 H         1 UNK         0.0807 
    122 H122      -80.2487   24.7399  -74.5086 H         1 UNK         0.2946 
    123 H123      -83.2648   25.8728  -74.4295 H         1 UNK         0.1144 
    124 H124      -83.0965   28.1731  -73.4246 H         1 UNK         0.0793 
    125 H125      -81.8072   27.6146  -72.3589 H         1 UNK         0.0793 
    126 H126      -83.4322   26.9647  -72.1994 H         1 UNK         0.0793 
    127 H127      -80.4159   26.5635  -74.7176 H         1 UNK         0.2896 
@<TRIPOS>BOND
     1    1    2 1    
     2    1   67 1    
     3    1   68 1    
     4    1   69 1    
     5    2    3 2    
     6    2    4 am   BACKBONE|DICT|INTERRES
     7    4    5 1    
     8    4   70 1    
     9    5    6 1    
    10    5   65 1    
    11    5   71 1    
    12    6    7 1    
    13    6   72 1    
    14    6   73 1    
    15    7    8 1    
    16    8    9 1    
    17    8   74 1    
    18    8   75 1    
    19    9   10 ar   
    20    9   14 ar   
    21   10   11 ar   
    22   10   76 1    
    23   11   12 ar   
    24   11   48 1    
    25   12   13 ar   
    26   12   77 1    
    27   13   14 ar   
    28   13   15 1    
    29   14   78 1    
    30   15   16 1    
    31   15   79 1    
    32   15   80 1    
    33   16   17 1    
    34   17   18 1    
    35   17   81 1    
    36   17   82 1    
    37   18   19 1    
    38   18   22 1    
    39   18   83 1    
    40   19   20 am   BACKBONE|DICT|INTERRES
    41   19   21 2    
    42   20   84 1    
    43   20   85 1    
    44   22   23 am   BACKBONE|DICT|INTERRES
    45   22   86 1    
    46   23   24 2    
    47   23   25 1    
    48   25   26 1    
    49   25   27 1    
    50   25   87 1    
    51   26   88 1    
    52   26   89 1    
    53   26   90 1    
    54   27   28 am   BACKBONE|DICT|INTERRES
    55   27   91 1    
    56   28   29 2    
    57   28   30 1    
    58   30   31 1    
    59   30   32 1    
    60   30   92 1    
    61   31   93 1    
    62   31   94 1    
    63   31   95 1    
    64   32   33 am   BACKBONE|DICT|INTERRES
    65   32   96 1    
    66   33   34 2    
    67   33   35 1    
    68   35   36 1    
    69   35   37 1    
    70   35   97 1    
    71   36   98 1    
    72   36   99 1    
    73   36  100 1    
    74   37   38 am   BACKBONE|DICT|INTERRES
    75   37  101 1    
    76   38   39 2    
    77   38   40 1    
    78   40   41 1    
    79   40   42 1    
    80   40  102 1    
    81   41  103 1    
    82   41  104 1    
    83   41  105 1    
    84   42   43 am   BACKBONE|DICT|INTERRES
    85   42  106 1    
    86   43   44 2    
    87   43   45 1    
    88   45   46 1    
    89   45   49 1    
    90   45  107 1    
    91   46   47 1    
    92   46  108 1    
    93   46  109 1    
    94   47   48 1    
    95   48  110 1    
    96   48  111 1    
    97   49   50 am   BACKBONE|DICT|INTERRES
    98   49  112 1    
    99   50   51 2    
   100   50   52 1    
   101   52   53 1    
   102   52   54 1    
   103   52  113 1    
   104   53  114 1    
   105   53  115 1    
   106   53  116 1    
   107   54   55 am   BACKBONE|DICT|INTERRES
   108   54  117 1    
   109   55   56 2    
   110   55   57 1    
   111   57   58 1    
   112   57   59 1    
   113   57  118 1    
   114   58  119 1    
   115   58  120 1    
   116   58  121 1    
   117   59   60 am   BACKBONE|DICT|INTERRES
   118   59  122 1    
   119   60   61 2    
   120   60   62 1    
   121   62   63 1    
   122   62   64 1    
   123   62  123 1    
   124   63  124 1    
   125   63  125 1    
   126   63  126 1    
   127   64   65 am   BACKBONE|DICT|INTERRES
   128   64  127 1    
   129   65   66 2    
@<TRIPOS>SUBSTRUCTURE
     1 UNK         1 GROUP             0       ****    0 ROOT    
