@<TRIPOS>MOLECULE
3R135
127   129    1
SMALL
USER_CHARGES


@<TRIPOS>ATOM
      1 CA        -80.6927   22.1037  -71.8108 C.3       0 UNK        -0.1998 
      2 C         -81.4074   23.3927  -72.1852 C.2       0 UNK         0.4909 
      3 O         -82.2255   23.3965  -73.1060 O.2       0 UNK        -0.5240 
      4 N         -81.0973   24.4909  -71.4850 N.am      1 UNK        -0.4739 
      5 CA        -81.5983   25.8468  -71.7379 C.3       1 UNK         0.0864 
      6 C6        -81.1576   26.8647  -70.6463 C.3       11 UNK        -0.0881 
      7 S7        -79.4899   26.5884  -69.9384 S.3       11 UNK        -0.2682 
      8 C8        -78.7636   28.2571  -69.9367 C.3       11 UNK         0.0289 
      9 C9        -77.8660   28.4822  -71.1429 C.ar      11 UNK        -0.0687 
     10 C10       -78.3160   29.2203  -72.2417 C.ar      11 UNK        -0.0823 
     11 C11       -77.4763   29.4425  -73.3388 C.ar      11 UNK        -0.0830 
     12 C12       -76.1763   28.9330  -73.3213 C.ar      11 UNK        -0.1021 
     13 C13       -75.7237   28.1721  -72.2414 C.ar      11 UNK        -0.0753 
     14 C14       -76.5719   27.9531  -71.1526 C.ar      11 UNK        -0.0933 
     15 C15       -74.3440   27.5344  -72.3045 C.3       11 UNK         0.0166 
     16 S16       -73.3205   27.7859  -70.8159 S.3       11 UNK        -0.2615 
     17 C17       -73.1043   29.5961  -70.6421 C.3       11 UNK        -0.0865 
     18 CA        -73.0810   30.4615  -71.9324 C.3       10 UNK         0.0862 
     19 C         -72.9014   31.9639  -71.5573 C.2       10 UNK         0.5551 
     20 N         -71.7806   32.6007  -71.8756 N.am      10 UNK        -0.7319 
     21 O         -73.7966   32.5592  -70.9629 O.2       10 UNK        -0.5018 
     22 N         -72.1293   29.9491  -72.9352 N.am      10 UNK        -0.4509 
     23 C         -72.0979   30.3422  -74.2165 C.2       10 UNK         0.4899 
     24 O         -72.8687   31.1690  -74.7044 O.2       10 UNK        -0.4839 
     25 CA        -71.0246   29.6993  -75.1097 C.3       9 UNK         0.0222 
     26 CB        -69.6394   30.3005  -74.8177 C.3       9 UNK        -0.1966 
     27 N         -70.9669   28.2388  -74.9954 N.am      9 UNK        -0.4218 
     28 C         -71.9368   27.4093  -75.4028 C.2       9 UNK         0.5020 
     29 O         -73.0141   27.7886  -75.8741 O.2       9 UNK        -0.5274 
     30 CA        -71.6387   25.9068  -75.2848 C.3       8 UNK         0.0270 
     31 CB        -71.7669   25.3993  -73.8393 C.3       8 UNK        -0.1976 
     32 N         -72.5826   25.1934  -76.1342 N.am      8 UNK        -0.4313 
     33 C         -72.2983   24.1847  -76.9635 C.2       8 UNK         0.5041 
     34 O         -71.2224   23.5847  -76.9797 O.2       8 UNK        -0.5577 
     35 CA        -73.3871   23.8233  -77.9909 C.3       7 UNK         0.0284 
     36 CB        -74.3992   22.8314  -77.3953 C.3       7 UNK        -0.1958 
     37 N         -74.0913   25.0136  -78.4779 N.am      7 UNK        -0.4454 
     38 C         -73.5376   25.9906  -79.2102 C.2       7 UNK         0.5089 
     39 O         -72.4087   25.9160  -79.6965 O.2       7 UNK        -0.5125 
     40 CA        -74.3417   27.2916  -79.4043 C.3       6 UNK         0.0408 
     41 CB        -75.1200   27.2790  -80.7347 C.3       6 UNK        -0.1791 
     42 N         -75.1976   27.6557  -78.2628 N.am      6 UNK        -0.4762 
     43 C         -76.3142   27.0504  -77.8349 C.2       6 UNK         0.5007 
     44 O         -76.8169   26.0731  -78.3939 O.2       6 UNK        -0.5032 
     45 CA        -76.9635   27.6124  -76.5542 C.3       5 UNK         0.0783 
     46 C46       -78.0865   28.6166  -76.9241 C.3       11 UNK        -0.0857 
     47 S47       -79.1212   29.2086  -75.5402 S.3       11 UNK        -0.2512 
     48 C48       -77.9825   30.2209  -74.5440 C.3       11 UNK         0.0225 
     49 N         -77.4241   26.5244  -75.6876 N.am      5 UNK        -0.4615 
     50 C         -76.6282   25.6004  -75.1279 C.2       4 UNK         0.5053 
     51 O         -75.4007   25.6081  -75.2264 O.2       4 UNK        -0.5105 
     52 CA        -77.3045   24.4569  -74.3537 C.3       4 UNK         0.0263 
     53 CB        -77.3120   24.7441  -72.8437 C.3       4 UNK        -0.1981 
     54 N         -78.6718   24.2176  -74.8227 N.am      4 UNK        -0.4224 
     55 C         -78.9718   23.4764  -75.9017 C.2       3 UNK         0.4895 
     56 O         -78.1318   22.8472  -76.5459 O.2       3 UNK        -0.5091 
     57 CA        -80.4443   23.4035  -76.3489 C.3       3 UNK         0.0250 
     58 CB        -81.0503   22.0333  -76.0031 C.3       3 UNK        -0.1996 
     59 N         -81.2753   24.4646  -75.7749 N.am      3 UNK        -0.4254 
     60 C         -81.3161   25.7212  -76.2447 C.2       2 UNK         0.5004 
     61 O         -80.7180   26.0886  -77.2552 O.2       2 UNK        -0.5226 
     62 CA        -82.1388   26.7541  -75.4486 C.3       2 UNK         0.0269 
     63 CB        -83.5387   26.9129  -76.0630 C.3       2 UNK        -0.1926 
     64 N         -82.2710   26.4498  -74.0194 N.am      2 UNK        -0.4687 
     65 C         -81.2461   26.3064  -73.1668 C.2       1 UNK         0.5165 
     66 O         -80.0689   26.4430  -73.4955 O.2       1 UNK        -0.5079 
     67 H67       -80.0083   21.8104  -72.6063 H         1 UNK         0.0900 
     68 H68       -81.4155   21.3010  -71.6674 H         1 UNK         0.0900 
     69 H69       -80.1185   22.2107  -70.8907 H         1 UNK         0.0900 
     70 H70       -80.3940   24.4399  -70.7607 H         1 UNK         0.2959 
     71 H71       -82.6873   25.7827  -71.6829 H         1 UNK         0.1079 
     72 H72       -81.2460   27.8893  -71.0126 H         1 UNK         0.0837 
     73 H73       -81.8566   26.8032  -69.8108 H         1 UNK         0.0837 
     74 H74       -79.5450   29.0163  -69.8813 H         1 UNK         0.0685 
     75 H75       -78.1714   28.3735  -69.0278 H         1 UNK         0.0685 
     76 H76       -79.3238   29.6117  -72.2512 H         1 UNK         0.1434 
     77 H77       -75.5145   29.1105  -74.1569 H         1 UNK         0.1329 
     78 H78       -76.2297   27.3588  -70.3166 H         1 UNK         0.1335 
     79 H79       -74.4909   26.4628  -72.4342 H         1 UNK         0.0680 
     80 H80       -73.7987   27.8689  -73.1851 H         1 UNK         0.0680 
     81 H81       -72.1830   29.7524  -70.0777 H         1 UNK         0.1032 
     82 H82       -73.9078   29.9420  -69.9885 H         1 UNK         0.1032 
     83 H83       -74.0699   30.4059  -72.3851 H         1 UNK         0.0461 
     84 H84       -71.6763   33.5723  -71.6287 H         1 UNK         0.3453 
     85 H85       -71.0415   32.1199  -72.3615 H         1 UNK         0.3453 
     86 H86       -71.4662   29.2603  -72.6131 H         1 UNK         0.2984 
     87 H87       -71.2771   29.9369  -76.1455 H         1 UNK         0.0554 
     88 H88       -68.8919   29.9339  -75.5216 H         1 UNK         0.0847 
     89 H89       -69.2946   30.0648  -73.8102 H         1 UNK         0.0847 
     90 H90       -69.6589   31.3875  -74.9096 H         1 UNK         0.0847 
     91 H91       -70.1154   27.8443  -74.6215 H         1 UNK         0.3141 
     92 H92       -70.6187   25.7422  -75.6389 H         1 UNK         0.0743 
     93 H93       -71.1908   26.0095  -73.1427 H         1 UNK         0.0784 
     94 H94       -71.4014   24.3759  -73.7535 H         1 UNK         0.0784 
     95 H95       -72.8034   25.4033  -73.5064 H         1 UNK         0.0784 
     96 H96       -73.5030   25.6244  -76.1760 H         1 UNK         0.3213 
     97 H97       -72.8982   23.3472  -78.8436 H         1 UNK         0.0855 
     98 H98       -73.8994   21.9246  -77.0524 H         1 UNK         0.0814 
     99 H99       -75.1444   22.5322  -78.1327 H         1 UNK         0.0814 
    100 H100      -74.9285   23.2541  -76.5409 H         1 UNK         0.0814 
    101 H101      -75.0481   25.1508  -78.1690 H         1 UNK         0.3105 
    102 H102      -73.6060   28.0949  -79.4709 H         1 UNK         0.0547 
    103 H103      -75.8430   26.4644  -80.7818 H         1 UNK         0.0837 
    104 H104      -74.4399   27.1508  -81.5777 H         1 UNK         0.0837 
    105 H105      -75.6562   28.2148  -80.8910 H         1 UNK         0.0837 
    106 H106      -74.8178   28.3965  -77.6867 H         1 UNK         0.3020 
    107 H107      -76.1889   28.1457  -76.0059 H         1 UNK         0.1245 
    108 H108      -78.7715   28.1599  -77.6419 H         1 UNK         0.0781 
    109 H109      -77.6639   29.4866  -77.4301 H         1 UNK         0.0781 
    110 H110      -78.5130   31.1095  -74.1990 H         1 UNK         0.0836 
    111 H111      -77.1564   30.5800  -75.1596 H         1 UNK         0.0836 
    112 H112      -78.4212   26.4680  -75.5383 H         1 UNK         0.3022 
    113 H113      -76.7124   23.5534  -74.5149 H         1 UNK         0.0747 
    114 H114      -77.8349   23.9650  -72.2892 H         1 UNK         0.0793 
    115 H115      -76.2945   24.7925  -72.4555 H         1 UNK         0.0793 
    116 H116      -77.7871   25.6976  -72.6128 H         1 UNK         0.0793 
    117 H117      -79.3978   24.7629  -74.3695 H         1 UNK         0.3047 
    118 H118      -80.4545   23.5051  -77.4365 H         1 UNK         0.0822 
    119 H119      -82.0854   21.9603  -76.3371 H         1 UNK         0.0807 
    120 H120      -81.0289   21.8371  -74.9316 H         1 UNK         0.0807 
    121 H121      -80.4962   21.2294  -76.4896 H         1 UNK         0.0807 
    122 H122      -81.7849   24.2361  -74.9262 H         1 UNK         0.2946 
    123 H123      -81.6192   27.7100  -75.5329 H         1 UNK         0.1144 
    124 H124      -83.4731   27.1670  -77.1221 H         1 UNK         0.0793 
    125 H125      -84.0990   27.7109  -75.5755 H         1 UNK         0.0793 
    126 H126      -84.1210   25.9939  -75.9838 H         1 UNK         0.0793 
    127 H127      -83.2083   26.2760  -73.6852 H         1 UNK         0.2896 
@<TRIPOS>BOND
     1    1    2 1    
     2    1   67 1    
     3    1   68 1    
     4    1   69 1    
     5    2    3 2    
     6    2    4 am   BACKBONE|DICT|INTERRES
     7    4    5 1    
     8    4   70 1    
     9    5    6 1    
    10    5   65 1    
    11    5   71 1    
    12    6    7 1    
    13    6   72 1    
    14    6   73 1    
    15    7    8 1    
    16    8    9 1    
    17    8   74 1    
    18    8   75 1    
    19    9   10 ar   
    20    9   14 ar   
    21   10   11 ar   
    22   10   76 1    
    23   11   12 ar   
    24   11   48 1    
    25   12   13 ar   
    26   12   77 1    
    27   13   14 ar   
    28   13   15 1    
    29   14   78 1    
    30   15   16 1    
    31   15   79 1    
    32   15   80 1    
    33   16   17 1    
    34   17   18 1    
    35   17   81 1    
    36   17   82 1    
    37   18   19 1    
    38   18   22 1    
    39   18   83 1    
    40   19   20 am   BACKBONE|DICT|INTERRES
    41   19   21 2    
    42   20   84 1    
    43   20   85 1    
    44   22   23 am   BACKBONE|DICT|INTERRES
    45   22   86 1    
    46   23   24 2    
    47   23   25 1    
    48   25   26 1    
    49   25   27 1    
    50   25   87 1    
    51   26   88 1    
    52   26   89 1    
    53   26   90 1    
    54   27   28 am   BACKBONE|DICT|INTERRES
    55   27   91 1    
    56   28   29 2    
    57   28   30 1    
    58   30   31 1    
    59   30   32 1    
    60   30   92 1    
    61   31   93 1    
    62   31   94 1    
    63   31   95 1    
    64   32   33 am   BACKBONE|DICT|INTERRES
    65   32   96 1    
    66   33   34 2    
    67   33   35 1    
    68   35   36 1    
    69   35   37 1    
    70   35   97 1    
    71   36   98 1    
    72   36   99 1    
    73   36  100 1    
    74   37   38 am   BACKBONE|DICT|INTERRES
    75   37  101 1    
    76   38   39 2    
    77   38   40 1    
    78   40   41 1    
    79   40   42 1    
    80   40  102 1    
    81   41  103 1    
    82   41  104 1    
    83   41  105 1    
    84   42   43 am   BACKBONE|DICT|INTERRES
    85   42  106 1    
    86   43   44 2    
    87   43   45 1    
    88   45   46 1    
    89   45   49 1    
    90   45  107 1    
    91   46   47 1    
    92   46  108 1    
    93   46  109 1    
    94   47   48 1    
    95   48  110 1    
    96   48  111 1    
    97   49   50 am   BACKBONE|DICT|INTERRES
    98   49  112 1    
    99   50   51 2    
   100   50   52 1    
   101   52   53 1    
   102   52   54 1    
   103   52  113 1    
   104   53  114 1    
   105   53  115 1    
   106   53  116 1    
   107   54   55 am   BACKBONE|DICT|INTERRES
   108   54  117 1    
   109   55   56 2    
   110   55   57 1    
   111   57   58 1    
   112   57   59 1    
   113   57  118 1    
   114   58  119 1    
   115   58  120 1    
   116   58  121 1    
   117   59   60 am   BACKBONE|DICT|INTERRES
   118   59  122 1    
   119   60   61 2    
   120   60   62 1    
   121   62   63 1    
   122   62   64 1    
   123   62  123 1    
   124   63  124 1    
   125   63  125 1    
   126   63  126 1    
   127   64   65 am   BACKBONE|DICT|INTERRES
   128   64  127 1    
   129   65   66 2    
@<TRIPOS>SUBSTRUCTURE
     1 UNK         1 GROUP             0       ****    0 ROOT    
