@<TRIPOS>MOLECULE
3R135
127   129    1
SMALL
USER_CHARGES


@<TRIPOS>ATOM
      1 CA        -79.6957   31.8238  -76.9166 C.3       0 UNK        -0.1998 
      2 C         -79.4706   30.4737  -76.2533 C.2       0 UNK         0.4909 
      3 O         -78.7075   29.6588  -76.7721 O.2       0 UNK        -0.5240 
      4 N         -80.1147   30.2414  -75.1033 N.am      1 UNK        -0.4739 
      5 CA        -80.0514   28.9951  -74.3297 C.3       1 UNK         0.0864 
      6 C6        -80.6579   29.1753  -72.9115 C.3       11 UNK        -0.0881 
      7 S7        -79.9473   30.5834  -71.9853 S.3       11 UNK        -0.2682 
      8 C8        -79.7638   29.9070  -70.3039 C.3       11 UNK         0.0289 
      9 C9        -78.4808   29.1036  -70.1648 C.ar      11 UNK        -0.0687 
     10 C10       -78.5067   27.7085  -70.2329 C.ar      11 UNK        -0.0823 
     11 C11       -77.3235   26.9728  -70.1286 C.ar      11 UNK        -0.0830 
     12 C12       -76.1106   27.6488  -69.9580 C.ar      11 UNK        -0.1021 
     13 C13       -76.0622   29.0447  -69.9138 C.ar      11 UNK        -0.0753 
     14 C14       -77.2622   29.7638  -69.9808 C.ar      11 UNK        -0.0933 
     15 C15       -74.6863   29.7118  -69.8347 C.3       11 UNK         0.0166 
     16 S16       -74.5909   31.4834  -70.2876 S.3       11 UNK        -0.2615 
     17 C17       -75.3552   31.6637  -71.9447 C.3       11 UNK        -0.0865 
     18 CA        -75.2705   30.4696  -72.9427 C.3       10 UNK         0.0862 
     19 C         -76.2126   30.6680  -74.1648 C.2       10 UNK         0.5551 
     20 N         -76.2432   29.7406  -75.1090 N.am      10 UNK        -0.7319 
     21 O         -76.9176   31.6682  -74.2750 O.2       10 UNK        -0.5018 
     22 N         -73.8902   30.2304  -73.3879 N.am      10 UNK        -0.4509 
     23 C         -73.2454   29.0598  -73.3482 C.2       10 UNK         0.4899 
     24 O         -73.6874   28.0319  -72.8312 O.2       10 UNK        -0.4839 
     25 CA        -71.8295   29.0577  -73.9427 C.3       9 UNK         0.0222 
     26 CB        -70.7927   29.3391  -72.8424 C.3       9 UNK        -0.1966 
     27 N         -71.5340   27.7637  -74.5584 N.am      9 UNK        -0.4218 
     28 C         -71.7999   27.4355  -75.8302 C.2       9 UNK         0.5020 
     29 O         -72.2375   28.2372  -76.6584 O.2       9 UNK        -0.5274 
     30 CA        -71.4820   25.9859  -76.2596 C.3       8 UNK         0.0270 
     31 CB        -71.2540   25.0208  -75.0761 C.3       8 UNK        -0.1976 
     32 N         -72.5434   25.4389  -77.1060 N.am      8 UNK        -0.4313 
     33 C         -72.6068   25.5213  -78.4416 C.2       8 UNK         0.5041 
     34 O         -71.7369   26.0392  -79.1443 O.2       8 UNK        -0.5577 
     35 CA        -73.8475   24.9059  -79.1138 C.3       7 UNK         0.0284 
     36 CB        -73.7000   23.3815  -79.2544 C.3       7 UNK        -0.1958 
     37 N         -75.0757   25.2171  -78.3799 N.am      7 UNK        -0.4454 
     38 C         -75.7341   26.3817  -78.4716 C.2       7 UNK         0.5089 
     39 O         -75.4446   27.2696  -79.2744 O.2       7 UNK        -0.5125 
     40 CA        -76.9088   26.6026  -77.4997 C.3       6 UNK         0.0408 
     41 CB        -78.2490   26.2446  -78.1594 C.3       6 UNK        -0.1791 
     42 N         -76.7505   25.8648  -76.2419 N.am      6 UNK        -0.4762 
     43 C         -75.8469   26.1932  -75.3060 C.2       6 UNK         0.5007 
     44 O         -75.1297   27.1860  -75.3868 O.2       6 UNK        -0.5032 
     45 CA        -75.6730   25.2477  -74.1044 C.3       5 UNK         0.0783 
     46 C46       -76.4853   25.7458  -72.8901 C.3       11 UNK        -0.0857 
     47 S47       -76.1342   24.7696  -71.3909 S.3       11 UNK        -0.2512 
     48 C48       -77.3626   25.4505  -70.2260 C.3       11 UNK         0.0225 
     49 N         -75.9706   23.8565  -74.4564 N.am      5 UNK        -0.4615 
     50 C         -75.1942   23.1082  -75.2503 C.2       4 UNK         0.5053 
     51 O         -74.1517   23.5204  -75.7553 O.2       4 UNK        -0.5105 
     52 CA        -75.6696   21.6829  -75.5773 C.3       4 UNK         0.0263 
     53 CB        -75.0765   20.6792  -74.5765 C.3       4 UNK        -0.1981 
     54 N         -77.1278   21.5446  -75.6026 N.am      4 UNK        -0.4224 
     55 C         -77.9426   22.1806  -76.4560 C.2       3 UNK         0.4895 
     56 O         -77.5397   22.9338  -77.3441 O.2       3 UNK        -0.5091 
     57 CA        -79.4608   21.9658  -76.2840 C.3       3 UNK         0.0250 
     58 CB        -79.8412   21.0641  -75.0862 C.3       3 UNK        -0.1996 
     59 N         -80.2031   23.2314  -76.2082 N.am      3 UNK        -0.4254 
     60 C         -79.9795   24.2462  -75.3604 C.2       2 UNK         0.5004 
     61 O         -79.0565   24.2806  -74.5430 O.2       2 UNK        -0.5226 
     62 CA        -80.9793   25.4057  -75.4142 C.3       2 UNK         0.0269 
     63 CB        -82.2669   25.0433  -74.6485 C.3       2 UNK        -0.1926 
     64 N         -80.3738   26.6032  -74.8307 N.am      2 UNK        -0.4687 
     65 C         -80.7814   27.8540  -75.0746 C.2       1 UNK         0.5165 
     66 O         -81.7305   28.1186  -75.8190 O.2       1 UNK        -0.5079 
     67 H67       -80.0623   31.6863  -77.9334 H         1 UNK         0.0900 
     68 H68       -80.4202   32.4296  -76.3726 H         1 UNK         0.0900 
     69 H69       -78.7574   32.3763  -76.9620 H         1 UNK         0.0900 
     70 H70       -80.7205   30.9525  -74.7208 H         1 UNK         0.2959 
     71 H71       -78.9986   28.7205  -74.2292 H         1 UNK         0.1079 
     72 H72       -81.7363   29.3357  -72.9733 H         1 UNK         0.0837 
     73 H73       -80.5237   28.2609  -72.3319 H         1 UNK         0.0837 
     74 H74       -80.6363   29.3039  -70.0475 H         1 UNK         0.0685 
     75 H75       -79.7488   30.7352  -69.5939 H         1 UNK         0.0685 
     76 H76       -79.4488   27.1965  -70.3728 H         1 UNK         0.1434 
     77 H77       -75.1903   27.0832  -69.9008 H         1 UNK         0.1329 
     78 H78       -77.2580   30.8421  -69.9233 H         1 UNK         0.1335 
     79 H79       -73.9801   29.1665  -70.4602 H         1 UNK         0.0680 
     80 H80       -74.3204   29.6089  -68.8126 H         1 UNK         0.0680 
     81 H81       -74.9280   32.5555  -72.4064 H         1 UNK         0.1032 
     82 H82       -76.4010   31.9181  -71.7645 H         1 UNK         0.1032 
     83 H83       -75.6592   29.5808  -72.4495 H         1 UNK         0.0461 
     84 H84       -75.6663   28.9036  -75.0614 H         1 UNK         0.3453 
     85 H85       -76.9019   29.8445  -75.8709 H         1 UNK         0.3453 
     86 H86       -73.4446   31.0107  -73.8481 H         1 UNK         0.2984 
     87 H87       -71.7549   29.8450  -74.6960 H         1 UNK         0.0554 
     88 H88       -69.7799   29.3564  -73.2454 H         1 UNK         0.0847 
     89 H89       -70.8273   28.5884  -72.0515 H         1 UNK         0.0847 
     90 H90       -70.9716   30.3090  -72.3761 H         1 UNK         0.0847 
     91 H91       -71.2269   27.0337  -73.9325 H         1 UNK         0.3141 
     92 H92       -70.5548   26.0256  -76.8348 H         1 UNK         0.0743 
     93 H93       -72.1132   24.9897  -74.4044 H         1 UNK         0.0784 
     94 H94       -71.0815   24.0039  -75.4299 H         1 UNK         0.0784 
     95 H95       -70.3765   25.3008  -74.4920 H         1 UNK         0.0784 
     96 H96       -73.2812   24.9345  -76.6209 H         1 UNK         0.3213 
     97 H97       -73.9244   25.3264  -80.1191 H         1 UNK         0.0855 
     98 H98       -73.6032   22.8876  -78.2875 H         1 UNK         0.0814 
     99 H99       -72.8121   23.1308  -79.8363 H         1 UNK         0.0814 
    100 H100      -74.5574   22.9462  -79.7680 H         1 UNK         0.0814 
    101 H101      -75.3956   24.5391  -77.7019 H         1 UNK         0.3105 
    102 H102      -76.9336   27.6684  -77.2647 H         1 UNK         0.0547 
    103 H103      -78.3784   26.7937  -79.0929 H         1 UNK         0.0837 
    104 H104      -78.3213   25.1832  -78.3947 H         1 UNK         0.0837 
    105 H105      -79.0864   26.5114  -77.5164 H         1 UNK         0.0837 
    106 H106      -77.2943   25.0190  -76.1230 H         1 UNK         0.3020 
    107 H107      -74.6163   25.3009  -73.8298 H         1 UNK         0.1245 
    108 H108      -77.5564   25.7232  -73.0886 H         1 UNK         0.0781 
    109 H109      -76.2345   26.7880  -72.6813 H         1 UNK         0.0781 
    110 H110      -77.1840   25.0279  -69.2366 H         1 UNK         0.0836 
    111 H111      -78.3520   25.1084  -70.5340 H         1 UNK         0.0836 
    112 H112      -76.8467   23.4853  -74.1134 H         1 UNK         0.3022 
    113 H113      -75.2957   21.4355  -76.5732 H         1 UNK         0.0747 
    114 H114      -75.3316   19.6534  -74.8431 H         1 UNK         0.0793 
    115 H115      -73.9875   20.7458  -74.5577 H         1 UNK         0.0793 
    116 H116      -75.4313   20.8625  -73.5613 H         1 UNK         0.0793 
    117 H117      -77.5417   20.9525  -74.8973 H         1 UNK         0.3047 
    118 H118      -79.7949   21.4654  -77.1941 H         1 UNK         0.0822 
    119 H119      -79.5288   21.4933  -74.1330 H         1 UNK         0.0807 
    120 H120      -79.3961   20.0720  -75.1736 H         1 UNK         0.0807 
    121 H121      -80.9205   20.9183  -75.0378 H         1 UNK         0.0807 
    122 H122      -80.9698   23.3167  -76.8610 H         1 UNK         0.2946 
    123 H123      -81.2197   25.6004  -76.4622 H         1 UNK         0.1144 
    124 H124      -82.7288   24.1427  -75.0550 H         1 UNK         0.0793 
    125 H125      -83.0087   25.8393  -74.7129 H         1 UNK         0.0793 
    126 H126      -82.0658   24.8587  -73.5924 H         1 UNK         0.0793 
    127 H127      -79.5767   26.4182  -74.2350 H         1 UNK         0.2896 
@<TRIPOS>BOND
     1    1    2 1    
     2    1   67 1    
     3    1   68 1    
     4    1   69 1    
     5    2    3 2    
     6    2    4 am   BACKBONE|DICT|INTERRES
     7    4    5 1    
     8    4   70 1    
     9    5    6 1    
    10    5   65 1    
    11    5   71 1    
    12    6    7 1    
    13    6   72 1    
    14    6   73 1    
    15    7    8 1    
    16    8    9 1    
    17    8   74 1    
    18    8   75 1    
    19    9   10 ar   
    20    9   14 ar   
    21   10   11 ar   
    22   10   76 1    
    23   11   12 ar   
    24   11   48 1    
    25   12   13 ar   
    26   12   77 1    
    27   13   14 ar   
    28   13   15 1    
    29   14   78 1    
    30   15   16 1    
    31   15   79 1    
    32   15   80 1    
    33   16   17 1    
    34   17   18 1    
    35   17   81 1    
    36   17   82 1    
    37   18   19 1    
    38   18   22 1    
    39   18   83 1    
    40   19   20 am   BACKBONE|DICT|INTERRES
    41   19   21 2    
    42   20   84 1    
    43   20   85 1    
    44   22   23 am   BACKBONE|DICT|INTERRES
    45   22   86 1    
    46   23   24 2    
    47   23   25 1    
    48   25   26 1    
    49   25   27 1    
    50   25   87 1    
    51   26   88 1    
    52   26   89 1    
    53   26   90 1    
    54   27   28 am   BACKBONE|DICT|INTERRES
    55   27   91 1    
    56   28   29 2    
    57   28   30 1    
    58   30   31 1    
    59   30   32 1    
    60   30   92 1    
    61   31   93 1    
    62   31   94 1    
    63   31   95 1    
    64   32   33 am   BACKBONE|DICT|INTERRES
    65   32   96 1    
    66   33   34 2    
    67   33   35 1    
    68   35   36 1    
    69   35   37 1    
    70   35   97 1    
    71   36   98 1    
    72   36   99 1    
    73   36  100 1    
    74   37   38 am   BACKBONE|DICT|INTERRES
    75   37  101 1    
    76   38   39 2    
    77   38   40 1    
    78   40   41 1    
    79   40   42 1    
    80   40  102 1    
    81   41  103 1    
    82   41  104 1    
    83   41  105 1    
    84   42   43 am   BACKBONE|DICT|INTERRES
    85   42  106 1    
    86   43   44 2    
    87   43   45 1    
    88   45   46 1    
    89   45   49 1    
    90   45  107 1    
    91   46   47 1    
    92   46  108 1    
    93   46  109 1    
    94   47   48 1    
    95   48  110 1    
    96   48  111 1    
    97   49   50 am   BACKBONE|DICT|INTERRES
    98   49  112 1    
    99   50   51 2    
   100   50   52 1    
   101   52   53 1    
   102   52   54 1    
   103   52  113 1    
   104   53  114 1    
   105   53  115 1    
   106   53  116 1    
   107   54   55 am   BACKBONE|DICT|INTERRES
   108   54  117 1    
   109   55   56 2    
   110   55   57 1    
   111   57   58 1    
   112   57   59 1    
   113   57  118 1    
   114   58  119 1    
   115   58  120 1    
   116   58  121 1    
   117   59   60 am   BACKBONE|DICT|INTERRES
   118   59  122 1    
   119   60   61 2    
   120   60   62 1    
   121   62   63 1    
   122   62   64 1    
   123   62  123 1    
   124   63  124 1    
   125   63  125 1    
   126   63  126 1    
   127   64   65 am   BACKBONE|DICT|INTERRES
   128   64  127 1    
   129   65   66 2    
@<TRIPOS>SUBSTRUCTURE
     1 UNK         1 GROUP             0       ****    0 ROOT    
