@<TRIPOS>MOLECULE
3R135
127   129    1
SMALL
USER_CHARGES


@<TRIPOS>ATOM
      1 CA        -79.0092   23.8141  -70.7650 C.3       0 UNK        -0.1998 
      2 C         -80.3171   24.5246  -71.0713 C.2       0 UNK         0.4909 
      3 O         -81.3729   23.8908  -71.0737 O.2       0 UNK        -0.5240 
      4 N         -80.2616   25.8358  -71.3386 N.am      1 UNK        -0.4739 
      5 CA        -81.4185   26.7154  -71.5785 C.3       1 UNK         0.0864 
      6 C6        -81.1103   28.1948  -71.2180 C.3       11 UNK        -0.0881 
      7 S7        -80.3801   28.3887  -69.5507 S.3       11 UNK        -0.2682 
      8 C8        -79.2919   29.8430  -69.7453 C.3       11 UNK         0.0289 
      9 C9        -78.3221   29.7172  -70.9147 C.ar      11 UNK        -0.0687 
     10 C10       -77.3991   28.6691  -70.9664 C.ar      11 UNK        -0.0823 
     11 C11       -76.5546   28.5240  -72.0708 C.ar      11 UNK        -0.0830 
     12 C12       -76.6228   29.4475  -73.1173 C.ar      11 UNK        -0.1021 
     13 C13       -77.5048   30.5335  -73.0560 C.ar      11 UNK        -0.0753 
     14 C14       -78.3599   30.6498  -71.9560 C.ar      11 UNK        -0.0933 
     15 C15       -77.5757   31.5903  -74.1594 C.3       11 UNK         0.0166 
     16 S16       -76.0174   31.8823  -75.0674 S.3       11 UNK        -0.2615 
     17 C17       -74.8682   32.3485  -73.7214 C.3       11 UNK        -0.0865 
     18 CA        -73.3934   32.5002  -74.2063 C.3       10 UNK         0.0862 
     19 C         -72.3920   32.9081  -73.0810 C.2       10 UNK         0.5551 
     20 N         -72.8244   33.6571  -72.0744 N.am      10 UNK        -0.7319 
     21 O         -71.2019   32.6025  -73.1386 O.2       10 UNK        -0.5018 
     22 N         -72.9354   31.3515  -75.0075 N.am      10 UNK        -0.4509 
     23 C         -72.7680   30.0922  -74.5833 C.2       10 UNK         0.4899 
     24 O         -72.9537   29.7201  -73.4224 O.2       10 UNK        -0.4839 
     25 CA        -72.3998   29.0788  -75.6833 C.3       9 UNK         0.0222 
     26 CB        -71.2038   29.5326  -76.5505 C.3       9 UNK        -0.1966 
     27 N         -72.2067   27.7165  -75.1779 N.am      9 UNK        -0.4218 
     28 C         -71.1862   27.2222  -74.4603 C.2       9 UNK         0.5020 
     29 O         -70.2091   27.8738  -74.0885 O.2       9 UNK        -0.5274 
     30 CA        -71.2505   25.7195  -74.1333 C.3       8 UNK         0.0270 
     31 CB        -72.0207   25.4771  -72.8243 C.3       8 UNK        -0.1976 
     32 N         -71.8818   24.9658  -75.2210 N.am      8 UNK        -0.4313 
     33 C         -71.2307   24.4562  -76.2767 C.2       8 UNK         0.5041 
     34 O         -70.0040   24.4529  -76.3880 O.2       8 UNK        -0.5577 
     35 CA        -72.0870   23.8555  -77.4103 C.3       7 UNK         0.0284 
     36 CB        -72.3558   22.3645  -77.1511 C.3       7 UNK        -0.1958 
     37 N         -73.3634   24.5498  -77.5977 N.am      7 UNK        -0.4454 
     38 C         -73.4912   25.8114  -78.0373 C.2       7 UNK         0.5089 
     39 O         -72.5527   26.4820  -78.4661 O.2       7 UNK        -0.5125 
     40 CA        -74.8914   26.4555  -77.9495 C.3       6 UNK         0.0408 
     41 CB        -75.5525   26.4824  -79.3354 C.3       6 UNK        -0.1791 
     42 N         -75.7998   25.8176  -76.9853 N.am      6 UNK        -0.4762 
     43 C         -75.5554   25.6756  -75.6709 C.2       6 UNK         0.5007 
     44 O         -74.5353   26.1117  -75.1401 O.2       6 UNK        -0.5032 
     45 CA        -76.5525   24.8661  -74.8120 C.3       5 UNK         0.0783 
     46 C46       -77.2483   25.7529  -73.7464 C.3       11 UNK        -0.0857 
     47 S47       -76.3504   25.7489  -72.1568 S.3       11 UNK        -0.2512 
     48 C48       -75.5496   27.3842  -72.1284 C.3       11 UNK         0.0225 
     49 N         -77.5144   24.0993  -75.6112 N.am      5 UNK        -0.4615 
     50 C         -77.1956   23.0395  -76.3722 C.2       4 UNK         0.5053 
     51 O         -76.0552   22.5796  -76.4428 O.2       4 UNK        -0.5105 
     52 CA        -78.3102   22.4053  -77.2290 C.3       4 UNK         0.0263 
     53 CB        -78.8580   21.1451  -76.5404 C.3       4 UNK        -0.1981 
     54 N         -79.4251   23.3091  -77.5280 N.am      4 UNK        -0.4224 
     55 C         -79.3288   24.4752  -78.1838 C.2       3 UNK         0.4895 
     56 O         -78.2878   24.8801  -78.7002 O.2       3 UNK        -0.5091 
     57 CA        -80.5828   25.3711  -78.2215 C.3       3 UNK         0.0250 
     58 CB        -81.3061   25.2183  -79.5692 C.3       3 UNK        -0.1996 
     59 N         -81.5439   25.1534  -77.1286 N.am      3 UNK        -0.4254 
     60 C         -81.2686   25.2160  -75.8170 C.2       2 UNK         0.5004 
     61 O         -80.1350   25.4033  -75.3671 O.2       2 UNK        -0.5226 
     62 CA        -82.4485   24.9575  -74.8616 C.3       2 UNK         0.0269 
     63 CB        -82.8437   23.4705  -74.8847 C.3       2 UNK        -0.1926 
     64 N         -82.1249   25.3247  -73.4823 N.am      2 UNK        -0.4687 
     65 C         -81.9680   26.5712  -73.0203 C.2       1 UNK         0.5165 
     66 O         -82.2276   27.5727  -73.6915 O.2       1 UNK        -0.5079 
     67 H67       -79.1807   22.9729  -70.0939 H         1 UNK         0.0900 
     68 H68       -78.2994   24.4849  -70.2820 H         1 UNK         0.0900 
     69 H69       -78.5612   23.4335  -71.6826 H         1 UNK         0.0900 
     70 H70       -79.3646   26.3006  -71.3456 H         1 UNK         0.2959 
     71 H71       -82.2251   26.3898  -70.9177 H         1 UNK         0.1079 
     72 H72       -80.4420   28.6208  -71.9667 H         1 UNK         0.0837 
     73 H73       -82.0225   28.7931  -71.2559 H         1 UNK         0.0837 
     74 H74       -79.9180   30.7297  -69.8554 H         1 UNK         0.0685 
     75 H75       -78.7225   29.9826  -68.8255 H         1 UNK         0.0685 
     76 H76       -77.3547   27.9523  -70.1576 H         1 UNK         0.1434 
     77 H77       -75.9662   29.3308  -73.9684 H         1 UNK         0.1329 
     78 H78       -79.0637   31.4700  -71.9131 H         1 UNK         0.1335 
     79 H79       -77.9024   32.5435  -73.7406 H         1 UNK         0.0680 
     80 H80       -78.3411   31.2892  -74.8756 H         1 UNK         0.0680 
     81 H81       -74.9198   31.6067  -72.9235 H         1 UNK         0.1032 
     82 H82       -75.2320   33.2834  -73.2933 H         1 UNK         0.1032 
     83 H83       -73.3743   33.3411  -74.9004 H         1 UNK         0.0461 
     84 H84       -72.1690   33.9372  -71.3614 H         1 UNK         0.3453 
     85 H85       -73.7850   33.9530  -72.0114 H         1 UNK         0.3453 
     86 H86       -72.7492   31.5568  -75.9776 H         1 UNK         0.2984 
     87 H87       -73.2710   29.0154  -76.3365 H         1 UNK         0.0554 
     88 H88       -70.9219   28.7606  -77.2671 H         1 UNK         0.0847 
     89 H89       -70.3269   29.7633  -75.9445 H         1 UNK         0.0847 
     90 H90       -71.4428   30.4259  -77.1275 H         1 UNK         0.0847 
     91 H91       -73.0069   27.1023  -75.3086 H         1 UNK         0.3141 
     92 H92       -70.2275   25.3642  -73.9913 H         1 UNK         0.0743 
     93 H93       -73.0596   25.7987  -72.8963 H         1 UNK         0.0784 
     94 H94       -72.0162   24.4215  -72.5526 H         1 UNK         0.0784 
     95 H95       -71.5668   26.0269  -71.9986 H         1 UNK         0.0784 
     96 H96       -72.8954   24.9770  -75.2366 H         1 UNK         0.3213 
     97 H97       -71.5160   23.9450  -78.3371 H         1 UNK         0.0855 
     98 H98       -72.9519   22.2110  -76.2503 H         1 UNK         0.0814 
     99 H99       -71.4216   21.8160  -77.0225 H         1 UNK         0.0814 
    100 H100      -72.8872   21.9062  -77.9854 H         1 UNK         0.0814 
    101 H101      -74.1971   24.0652  -77.2916 H         1 UNK         0.3105 
    102 H102      -74.7497   27.4875  -77.6236 H         1 UNK         0.0547 
    103 H103      -74.9159   26.9861  -80.0642 H         1 UNK         0.0837 
    104 H104      -75.7438   25.4758  -79.7095 H         1 UNK         0.0837 
    105 H105      -76.5021   27.0173  -79.3128 H         1 UNK         0.0837 
    106 H106      -76.6549   25.4271  -77.3665 H         1 UNK         0.3020 
    107 H107      -75.9474   24.1210  -74.2896 H         1 UNK         0.1245 
    108 H108      -78.2413   25.3619  -73.5228 H         1 UNK         0.0781 
    109 H109      -77.4170   26.7709  -74.1024 H         1 UNK         0.0781 
    110 H110      -74.8932   27.4880  -72.9925 H         1 UNK         0.0836 
    111 H111      -74.9016   27.4417  -71.2529 H         1 UNK         0.0836 
    112 H112      -78.4712   24.4454  -75.6092 H         1 UNK         0.3022 
    113 H113      -77.8600   22.1122  -78.1796 H         1 UNK         0.0747 
    114 H114      -79.5825   20.6299  -77.1713 H         1 UNK         0.0793 
    115 H115      -78.0560   20.4366  -76.3275 H         1 UNK         0.0793 
    116 H116      -79.3437   21.3818  -75.5926 H         1 UNK         0.0793 
    117 H117      -80.3223   23.0642  -77.1364 H         1 UNK         0.3047 
    118 H118      -80.2331   26.4021  -78.1372 H         1 UNK         0.0822 
    119 H119      -82.1254   25.9312  -79.6647 H         1 UNK         0.0807 
    120 H120      -81.7149   24.2152  -79.6967 H         1 UNK         0.0807 
    121 H121      -80.6244   25.4003  -80.4016 H         1 UNK         0.0807 
    122 H122      -82.4975   24.9729  -77.4093 H         1 UNK         0.2946 
    123 H123      -83.2962   25.5628  -75.1910 H         1 UNK         0.1144 
    124 H124      -83.1496   23.1535  -75.8824 H         1 UNK         0.0793 
    125 H125      -83.6831   23.2745  -74.2170 H         1 UNK         0.0793 
    126 H126      -82.0165   22.8291  -74.5765 H         1 UNK         0.0793 
    127 H127      -81.8809   24.5698  -72.8492 H         1 UNK         0.2896 
@<TRIPOS>BOND
     1    1    2 1    
     2    1   67 1    
     3    1   68 1    
     4    1   69 1    
     5    2    3 2    
     6    2    4 am   BACKBONE|DICT|INTERRES
     7    4    5 1    
     8    4   70 1    
     9    5    6 1    
    10    5   65 1    
    11    5   71 1    
    12    6    7 1    
    13    6   72 1    
    14    6   73 1    
    15    7    8 1    
    16    8    9 1    
    17    8   74 1    
    18    8   75 1    
    19    9   10 ar   
    20    9   14 ar   
    21   10   11 ar   
    22   10   76 1    
    23   11   12 ar   
    24   11   48 1    
    25   12   13 ar   
    26   12   77 1    
    27   13   14 ar   
    28   13   15 1    
    29   14   78 1    
    30   15   16 1    
    31   15   79 1    
    32   15   80 1    
    33   16   17 1    
    34   17   18 1    
    35   17   81 1    
    36   17   82 1    
    37   18   19 1    
    38   18   22 1    
    39   18   83 1    
    40   19   20 am   BACKBONE|DICT|INTERRES
    41   19   21 2    
    42   20   84 1    
    43   20   85 1    
    44   22   23 am   BACKBONE|DICT|INTERRES
    45   22   86 1    
    46   23   24 2    
    47   23   25 1    
    48   25   26 1    
    49   25   27 1    
    50   25   87 1    
    51   26   88 1    
    52   26   89 1    
    53   26   90 1    
    54   27   28 am   BACKBONE|DICT|INTERRES
    55   27   91 1    
    56   28   29 2    
    57   28   30 1    
    58   30   31 1    
    59   30   32 1    
    60   30   92 1    
    61   31   93 1    
    62   31   94 1    
    63   31   95 1    
    64   32   33 am   BACKBONE|DICT|INTERRES
    65   32   96 1    
    66   33   34 2    
    67   33   35 1    
    68   35   36 1    
    69   35   37 1    
    70   35   97 1    
    71   36   98 1    
    72   36   99 1    
    73   36  100 1    
    74   37   38 am   BACKBONE|DICT|INTERRES
    75   37  101 1    
    76   38   39 2    
    77   38   40 1    
    78   40   41 1    
    79   40   42 1    
    80   40  102 1    
    81   41  103 1    
    82   41  104 1    
    83   41  105 1    
    84   42   43 am   BACKBONE|DICT|INTERRES
    85   42  106 1    
    86   43   44 2    
    87   43   45 1    
    88   45   46 1    
    89   45   49 1    
    90   45  107 1    
    91   46   47 1    
    92   46  108 1    
    93   46  109 1    
    94   47   48 1    
    95   48  110 1    
    96   48  111 1    
    97   49   50 am   BACKBONE|DICT|INTERRES
    98   49  112 1    
    99   50   51 2    
   100   50   52 1    
   101   52   53 1    
   102   52   54 1    
   103   52  113 1    
   104   53  114 1    
   105   53  115 1    
   106   53  116 1    
   107   54   55 am   BACKBONE|DICT|INTERRES
   108   54  117 1    
   109   55   56 2    
   110   55   57 1    
   111   57   58 1    
   112   57   59 1    
   113   57  118 1    
   114   58  119 1    
   115   58  120 1    
   116   58  121 1    
   117   59   60 am   BACKBONE|DICT|INTERRES
   118   59  122 1    
   119   60   61 2    
   120   60   62 1    
   121   62   63 1    
   122   62   64 1    
   123   62  123 1    
   124   63  124 1    
   125   63  125 1    
   126   63  126 1    
   127   64   65 am   BACKBONE|DICT|INTERRES
   128   64  127 1    
   129   65   66 2    
@<TRIPOS>SUBSTRUCTURE
     1 UNK         1 GROUP             0       ****    0 ROOT    
