@<TRIPOS>MOLECULE
3R135
127   129    1
SMALL
USER_CHARGES


@<TRIPOS>ATOM
      1 CA        -85.6527   29.0865  -75.7157 C.3       0 UNK        -0.1998 
      2 C         -84.2183   29.1114  -76.2215 C.2       0 UNK         0.4909 
      3 O         -83.9900   29.3610  -77.4054 O.2       0 UNK        -0.5240 
      4 N         -83.2491   28.8532  -75.3339 N.am      1 UNK        -0.4739 
      5 CA        -81.8139   28.8089  -75.6470 C.3       1 UNK         0.0864 
      6 C6        -80.9537   29.0370  -74.3774 C.3       11 UNK        -0.0881 
      7 S7        -81.1729   27.7503  -73.0970 S.3       11 UNK        -0.2682 
      8 C8        -80.6909   28.6406  -71.5863 C.3       11 UNK         0.0289 
      9 C9        -79.1959   28.5503  -71.3114 C.ar      11 UNK        -0.0687 
     10 C10       -78.6660   27.3880  -70.7439 C.ar      11 UNK        -0.0823 
     11 C11       -77.3143   27.3178  -70.3957 C.ar      11 UNK        -0.0830 
     12 C12       -76.4891   28.4218  -70.6189 C.ar      11 UNK        -0.1021 
     13 C13       -76.9988   29.5844  -71.2062 C.ar      11 UNK        -0.0753 
     14 C14       -78.3532   29.6396  -71.5583 C.ar      11 UNK        -0.0933 
     15 C15       -76.1026   30.8011  -71.4033 C.3       11 UNK         0.0166 
     16 S16       -74.9683   30.6117  -72.8150 S.3       11 UNK        -0.2615 
     17 C17       -73.6535   29.5607  -72.1010 C.3       11 UNK        -0.0865 
     18 CA        -72.2792   29.7449  -72.7976 C.3       10 UNK         0.0862 
     19 C         -71.1579   28.9242  -72.0935 C.2       10 UNK         0.5551 
     20 N         -70.3398   28.1538  -72.8027 N.am      10 UNK        -0.7319 
     21 O         -71.0161   28.9997  -70.8754 O.2       10 UNK        -0.5018 
     22 N         -72.3656   29.4835  -74.2413 N.am      10 UNK        -0.4509 
     23 C         -71.7134   30.1741  -75.1826 C.2       10 UNK         0.4899 
     24 O         -70.9929   31.1453  -74.9440 O.2       10 UNK        -0.4839 
     25 CA        -71.9043   29.7007  -76.6354 C.3       9 UNK         0.0222 
     26 CB        -70.8400   30.2680  -77.5993 C.3       9 UNK        -0.1966 
     27 N         -72.0015   28.2424  -76.7694 N.am      9 UNK        -0.4218 
     28 C         -71.0724   27.3257  -76.4537 C.2       9 UNK         0.5020 
     29 O         -69.9981   27.6118  -75.9218 O.2       9 UNK        -0.5274 
     30 CA        -71.3764   25.8429  -76.7680 C.3       8 UNK         0.0270 
     31 CB        -70.9347   24.9208  -75.6168 C.3       8 UNK        -0.1976 
     32 N         -72.7861   25.5811  -77.0715 N.am      8 UNK        -0.4313 
     33 C         -73.3948   25.8120  -78.2425 C.2       8 UNK         0.5041 
     34 O         -72.8067   26.1882  -79.2563 O.2       8 UNK        -0.5577 
     35 CA        -74.9282   25.6701  -78.2657 C.3       7 UNK         0.0284 
     36 CB        -75.3391   24.2349  -78.6285 C.3       7 UNK        -0.1958 
     37 N         -75.5561   26.0609  -76.9979 N.am      7 UNK        -0.4454 
     38 C         -75.5098   27.2919  -76.4672 C.2       7 UNK         0.5089 
     39 O         -74.9870   28.2551  -77.0275 O.2       7 UNK        -0.5125 
     40 CA        -76.0776   27.4653  -75.0488 C.3       6 UNK         0.0408 
     41 CB        -77.5951   27.6652  -75.0726 C.3       6 UNK        -0.1791 
     42 N         -75.7447   26.3448  -74.1699 N.am      6 UNK        -0.4762 
     43 C         -74.5093   26.0798  -73.7278 C.2       6 UNK         0.5007 
     44 O         -73.5265   26.7681  -74.0032 O.2       6 UNK        -0.5032 
     45 CA        -74.3309   24.8058  -72.8801 C.3       5 UNK         0.0783 
     46 C46       -74.6700   25.0410  -71.3814 C.3       11 UNK        -0.0857 
     47 S47       -76.4280   24.7580  -70.9516 S.3       11 UNK        -0.2512 
     48 C48       -76.7654   26.0642  -69.7341 C.3       11 UNK         0.0225 
     49 N         -75.0589   23.6649  -73.4425 N.am      5 UNK        -0.4615 
     50 C         -74.8405   23.1096  -74.6392 C.2       4 UNK         0.5053 
     51 O         -73.9270   23.4422  -75.3919 O.2       4 UNK        -0.5105 
     52 CA        -75.8482   22.0369  -75.0866 C.3       4 UNK         0.0263 
     53 CB        -75.4576   20.6611  -74.5244 C.3       4 UNK        -0.1981 
     54 N         -77.2333   22.3510  -74.7097 N.am      4 UNK        -0.4224 
     55 C         -77.9149   23.4145  -75.1575 C.2       3 UNK         0.4895 
     56 O         -77.4431   24.2567  -75.9241 O.2       3 UNK        -0.5091 
     57 CA        -79.3449   23.5921  -74.6400 C.3       3 UNK         0.0250 
     58 CB        -79.3535   24.3180  -73.2826 C.3       3 UNK        -0.1996 
     59 N         -80.0988   24.3736  -75.6170 N.am      3 UNK        -0.4254 
     60 C         -81.4091   24.2593  -75.8523 C.2       2 UNK         0.5004 
     61 O         -82.1556   23.5044  -75.2252 O.2       2 UNK        -0.5226 
     62 CA        -81.9855   25.1714  -76.9458 C.3       2 UNK         0.0269 
     63 CB        -83.2987   24.6237  -77.5360 C.3       2 UNK        -0.1926 
     64 N         -82.2420   26.4895  -76.3724 N.am      2 UNK        -0.4687 
     65 C         -81.3960   27.5277  -76.4078 C.2       1 UNK         0.5165 
     66 O         -80.3194   27.5019  -77.0053 O.2       1 UNK        -0.5079 
     67 H67       -86.1243   30.0554  -75.8779 H         1 UNK         0.0900 
     68 H68       -85.7060   28.8577  -74.6515 H         1 UNK         0.0900 
     69 H69       -86.2273   28.3332  -76.2540 H         1 UNK         0.0900 
     70 H70       -83.4872   28.6525  -74.3722 H         1 UNK         0.2959 
     71 H71       -81.6026   29.6369  -76.3278 H         1 UNK         0.1079 
     72 H72       -79.8987   29.1087  -74.6356 H         1 UNK         0.0837 
     73 H73       -81.2090   30.0076  -73.9498 H         1 UNK         0.0837 
     74 H74       -81.2313   28.2038  -70.7452 H         1 UNK         0.0685 
     75 H75       -81.0161   29.6805  -71.6386 H         1 UNK         0.0685 
     76 H76       -79.3133   26.5423  -70.5542 H         1 UNK         0.1434 
     77 H77       -75.4526   28.3795  -70.3183 H         1 UNK         0.1329 
     78 H78       -78.7597   30.5425  -71.9929 H         1 UNK         0.1335 
     79 H79       -75.5368   30.9995  -70.4919 H         1 UNK         0.0680 
     80 H80       -76.7121   31.6897  -71.5744 H         1 UNK         0.0680 
     81 H81       -73.9730   28.5211  -72.1542 H         1 UNK         0.1032 
     82 H82       -73.5619   29.7968  -71.0395 H         1 UNK         0.1032 
     83 H83       -71.9982   30.7895  -72.6519 H         1 UNK         0.0461 
     84 H84       -69.6168   27.6368  -72.3289 H         1 UNK         0.3453 
     85 H85       -70.4232   28.0968  -73.8093 H         1 UNK         0.3453 
     86 H86       -72.8878   28.6526  -74.4985 H         1 UNK         0.2984 
     87 H87       -72.8714   30.0942  -76.9509 H         1 UNK         0.0554 
     88 H88       -71.0139   29.9358  -78.6227 H         1 UNK         0.0847 
     89 H89       -69.8324   29.9639  -77.3140 H         1 UNK         0.0847 
     90 H90       -70.8597   31.3585  -77.6072 H         1 UNK         0.0847 
     91 H91       -72.8870   27.9129  -77.1366 H         1 UNK         0.3141 
     92 H92       -70.7838   25.5828  -77.6473 H         1 UNK         0.0743 
     93 H93       -71.4497   25.1634  -74.6873 H         1 UNK         0.0784 
     94 H94       -71.1350   23.8742  -75.8471 H         1 UNK         0.0784 
     95 H95       -69.8641   25.0088  -75.4285 H         1 UNK         0.0784 
     96 H96       -73.3431   25.2015  -76.3124 H         1 UNK         0.3213 
     97 H97       -75.3095   26.3398  -79.0396 H         1 UNK         0.0855 
     98 H98       -74.9688   23.5129  -77.9012 H         1 UNK         0.0814 
     99 H99       -74.9384   23.9502  -79.6022 H         1 UNK         0.0814 
    100 H100      -76.4233   24.1324  -78.6802 H         1 UNK         0.0814 
    101 H101      -76.0757   25.3404  -76.4991 H         1 UNK         0.3105 
    102 H102      -75.6312   28.3662  -74.6249 H         1 UNK         0.0547 
    103 H103      -77.8603   28.5187  -75.6973 H         1 UNK         0.0837 
    104 H104      -78.1175   26.7963  -75.4711 H         1 UNK         0.0837 
    105 H105      -77.9780   27.8568  -74.0700 H         1 UNK         0.0837 
    106 H106      -76.4927   25.7141  -73.9229 H         1 UNK         0.3020 
    107 H107      -73.2678   24.5607  -72.9384 H         1 UNK         0.1245 
    108 H108      -74.3583   26.0364  -71.0583 H         1 UNK         0.0781 
    109 H109      -74.0855   24.3472  -70.7752 H         1 UNK         0.0781 
    110 H110      -75.8662   26.2836  -69.1563 H         1 UNK         0.0836 
    111 H111      -77.4964   25.6886  -69.0165 H         1 UNK         0.0836 
    112 H112      -75.8355   23.3340  -72.8880 H         1 UNK         0.3022 
    113 H113      -75.8067   21.9820  -76.1762 H         1 UNK         0.0747 
    114 H114      -76.1086   19.8757  -74.9089 H         1 UNK         0.0793 
    115 H115      -74.4369   20.4003  -74.8081 H         1 UNK         0.0793 
    116 H116      -75.5090   20.6377  -73.4351 H         1 UNK         0.0793 
    117 H117      -77.6888   21.7085  -74.0771 H         1 UNK         0.3047 
    118 H118      -79.7982   22.6042  -74.5324 H         1 UNK         0.0822 
    119 H119      -78.8272   23.7389  -72.5236 H         1 UNK         0.0807 
    120 H120      -80.3708   24.4702  -72.9213 H         1 UNK         0.0807 
    121 H121      -78.8760   25.2971  -73.3414 H         1 UNK         0.0807 
    122 H122      -79.5357   24.9960  -76.1841 H         1 UNK         0.2946 
    123 H123      -81.2565   25.2412  -77.7569 H         1 UNK         0.1144 
    124 H124      -83.1517   23.6266  -77.9533 H         1 UNK         0.0793 
    125 H125      -83.6648   25.2611  -78.3411 H         1 UNK         0.0793 
    126 H126      -84.0861   24.5508  -76.7846 H         1 UNK         0.0793 
    127 H127      -83.0835   26.5873  -75.8228 H         1 UNK         0.2896 
@<TRIPOS>BOND
     1    1    2 1    
     2    1   67 1    
     3    1   68 1    
     4    1   69 1    
     5    2    3 2    
     6    2    4 am   BACKBONE|DICT|INTERRES
     7    4    5 1    
     8    4   70 1    
     9    5    6 1    
    10    5   65 1    
    11    5   71 1    
    12    6    7 1    
    13    6   72 1    
    14    6   73 1    
    15    7    8 1    
    16    8    9 1    
    17    8   74 1    
    18    8   75 1    
    19    9   10 ar   
    20    9   14 ar   
    21   10   11 ar   
    22   10   76 1    
    23   11   12 ar   
    24   11   48 1    
    25   12   13 ar   
    26   12   77 1    
    27   13   14 ar   
    28   13   15 1    
    29   14   78 1    
    30   15   16 1    
    31   15   79 1    
    32   15   80 1    
    33   16   17 1    
    34   17   18 1    
    35   17   81 1    
    36   17   82 1    
    37   18   19 1    
    38   18   22 1    
    39   18   83 1    
    40   19   20 am   BACKBONE|DICT|INTERRES
    41   19   21 2    
    42   20   84 1    
    43   20   85 1    
    44   22   23 am   BACKBONE|DICT|INTERRES
    45   22   86 1    
    46   23   24 2    
    47   23   25 1    
    48   25   26 1    
    49   25   27 1    
    50   25   87 1    
    51   26   88 1    
    52   26   89 1    
    53   26   90 1    
    54   27   28 am   BACKBONE|DICT|INTERRES
    55   27   91 1    
    56   28   29 2    
    57   28   30 1    
    58   30   31 1    
    59   30   32 1    
    60   30   92 1    
    61   31   93 1    
    62   31   94 1    
    63   31   95 1    
    64   32   33 am   BACKBONE|DICT|INTERRES
    65   32   96 1    
    66   33   34 2    
    67   33   35 1    
    68   35   36 1    
    69   35   37 1    
    70   35   97 1    
    71   36   98 1    
    72   36   99 1    
    73   36  100 1    
    74   37   38 am   BACKBONE|DICT|INTERRES
    75   37  101 1    
    76   38   39 2    
    77   38   40 1    
    78   40   41 1    
    79   40   42 1    
    80   40  102 1    
    81   41  103 1    
    82   41  104 1    
    83   41  105 1    
    84   42   43 am   BACKBONE|DICT|INTERRES
    85   42  106 1    
    86   43   44 2    
    87   43   45 1    
    88   45   46 1    
    89   45   49 1    
    90   45  107 1    
    91   46   47 1    
    92   46  108 1    
    93   46  109 1    
    94   47   48 1    
    95   48  110 1    
    96   48  111 1    
    97   49   50 am   BACKBONE|DICT|INTERRES
    98   49  112 1    
    99   50   51 2    
   100   50   52 1    
   101   52   53 1    
   102   52   54 1    
   103   52  113 1    
   104   53  114 1    
   105   53  115 1    
   106   53  116 1    
   107   54   55 am   BACKBONE|DICT|INTERRES
   108   54  117 1    
   109   55   56 2    
   110   55   57 1    
   111   57   58 1    
   112   57   59 1    
   113   57  118 1    
   114   58  119 1    
   115   58  120 1    
   116   58  121 1    
   117   59   60 am   BACKBONE|DICT|INTERRES
   118   59  122 1    
   119   60   61 2    
   120   60   62 1    
   121   62   63 1    
   122   62   64 1    
   123   62  123 1    
   124   63  124 1    
   125   63  125 1    
   126   63  126 1    
   127   64   65 am   BACKBONE|DICT|INTERRES
   128   64  127 1    
   129   65   66 2    
@<TRIPOS>SUBSTRUCTURE
     1 UNK         1 GROUP             0       ****    0 ROOT    
