@<TRIPOS>MOLECULE
3R135
127   129    1
SMALL
USER_CHARGES


@<TRIPOS>ATOM
      1 CA        -78.6287   21.1539  -71.1804 C.3       0 UNK        -0.1998 
      2 C         -79.8788   21.9890  -71.4149 C.2       0 UNK         0.4909 
      3 O         -80.9662   21.4323  -71.5738 O.2       0 UNK        -0.5240 
      4 N         -79.7301   23.3191  -71.4270 N.am      1 UNK        -0.4739 
      5 CA        -80.7903   24.2864  -71.7272 C.3       1 UNK         0.0864 
      6 C6        -80.5681   25.6152  -70.9564 C.3       11 UNK        -0.0881 
      7 S7        -79.0779   26.5465  -71.4521 S.3       11 UNK        -0.2682 
      8 C8        -79.3545   28.0817  -70.5173 C.3       11 UNK         0.0289 
      9 C9        -78.4938   29.2205  -71.0392 C.ar      11 UNK        -0.0687 
     10 C10       -78.7960   29.8044  -72.2717 C.ar      11 UNK        -0.0823 
     11 C11       -78.0417   30.8767  -72.7534 C.ar      11 UNK        -0.0830 
     12 C12       -76.9936   31.3826  -71.9799 C.ar      11 UNK        -0.1021 
     13 C13       -76.6764   30.8045  -70.7464 C.ar      11 UNK        -0.0753 
     14 C14       -77.4260   29.7167  -70.2848 C.ar      11 UNK        -0.0933 
     15 C15       -75.5522   31.3756  -69.8925 C.3       11 UNK         0.0166 
     16 S16       -73.9207   30.7129  -70.3583 S.3       11 UNK        -0.2615 
     17 C17       -73.5153   31.7061  -71.8379 C.3       11 UNK        -0.0865 
     18 CA        -73.5614   30.8851  -73.1578 C.3       10 UNK         0.0862 
     19 C         -73.4797   31.8052  -74.4116 C.2       10 UNK         0.5551 
     20 N         -72.7202   31.4562  -75.4429 N.am      10 UNK        -0.7319 
     21 O         -74.1107   32.8586  -74.4516 O.2       10 UNK        -0.5018 
     22 N         -72.5300   29.8339  -73.1577 N.am      10 UNK        -0.4509 
     23 C         -72.7506   28.5183  -73.0845 C.2       10 UNK         0.4899 
     24 O         -73.8644   27.9970  -73.0169 O.2       10 UNK        -0.4839 
     25 CA        -71.4871   27.6460  -72.9971 C.3       9 UNK         0.0222 
     26 CB        -71.0742   27.4556  -71.5278 C.3       9 UNK        -0.1966 
     27 N         -71.6738   26.3323  -73.6132 N.am      9 UNK        -0.4218 
     28 C         -71.7345   26.1045  -74.9312 C.2       9 UNK         0.5020 
     29 O         -71.6013   26.9876  -75.7815 O.2       9 UNK        -0.5274 
     30 CA        -71.9209   24.6456  -75.3844 C.3       8 UNK         0.0270 
     31 CB        -72.3906   23.6809  -74.2731 C.3       8 UNK        -0.1976 
     32 N         -72.8703   24.6072  -76.4931 N.am      8 UNK        -0.4313 
     33 C         -72.7390   23.8725  -77.6027 C.2       8 UNK         0.5041 
     34 O         -71.7825   23.1254  -77.8172 O.2       8 UNK        -0.5577 
     35 CA        -73.8584   23.9583  -78.6555 C.3       7 UNK         0.0284 
     36 CB        -74.8202   22.7661  -78.5236 C.3       7 UNK        -0.1958 
     37 N         -74.6263   25.2058  -78.6180 N.am      7 UNK        -0.4454 
     38 C         -74.1776   26.3798  -79.0847 C.2       7 UNK         0.5089 
     39 O         -73.0444   26.5503  -79.5352 O.2       7 UNK        -0.5125 
     40 CA        -75.1674   27.5540  -79.0806 C.3       6 UNK         0.0408 
     41 CB        -76.1217   27.4550  -80.2820 C.3       6 UNK        -0.1791 
     42 N         -75.9504   27.5980  -77.8470 N.am      6 UNK        -0.4762 
     43 C         -75.6196   28.3134  -76.7615 C.2       6 UNK         0.5007 
     44 O         -74.6221   29.0313  -76.6970 O.2       6 UNK        -0.5032 
     45 CA        -76.5637   28.1990  -75.5404 C.3       5 UNK         0.0783 
     46 C46       -77.7403   29.2020  -75.6555 C.3       11 UNK        -0.0857 
     47 S47       -77.2336   30.9391  -75.4052 S.3       11 UNK        -0.2512 
     48 C48       -78.3701   31.5024  -74.0998 C.3       11 UNK         0.0225 
     49 N         -77.0645   26.8318  -75.3504 N.am      5 UNK        -0.4615 
     50 C         -76.2946   25.7450  -75.1822 C.2       4 UNK         0.5053 
     51 O         -75.0720   25.7838  -75.0803 O.2       4 UNK        -0.5105 
     52 CA        -76.9793   24.3663  -75.2118 C.3       4 UNK         0.0263 
     53 CB        -77.2102   23.8519  -73.7853 C.3       4 UNK        -0.1981 
     54 N         -78.2381   24.3449  -75.9650 N.am      4 UNK        -0.4224 
     55 C         -78.3570   24.6819  -77.2601 C.2       3 UNK         0.4895 
     56 O         -77.3956   24.9662  -77.9764 O.2       3 UNK        -0.5091 
     57 CA        -79.7713   24.7794  -77.8588 C.3       3 UNK         0.0250 
     58 CB        -80.0609   23.5539  -78.7396 C.3       3 UNK        -0.1996 
     59 N         -80.8482   24.9320  -76.8759 N.am      3 UNK        -0.4254 
     60 C         -80.9750   25.9234  -75.9808 C.2       2 UNK         0.5004 
     61 O         -80.1754   26.8547  -75.8691 O.2       2 UNK        -0.5226 
     62 CA        -82.1736   25.8358  -75.0134 C.3       2 UNK         0.0269 
     63 CB        -83.2940   24.8833  -75.4905 C.3       2 UNK        -0.1926 
     64 N         -81.7747   25.4838  -73.6428 N.am      2 UNK        -0.4687 
     65 C         -80.9950   24.4608  -73.2543 C.2       1 UNK         0.5165 
     66 O         -80.4614   23.6772  -74.0461 O.2       1 UNK        -0.5079 
     67 H67       -78.7497   20.5377  -70.2900 H         1 UNK         0.0900 
     68 H68       -78.4542   20.4954  -72.0307 H         1 UNK         0.0900 
     69 H69       -77.7429   21.7745  -71.0459 H         1 UNK         0.0900 
     70 H70       -78.8116   23.7198  -71.3034 H         1 UNK         0.2959 
     71 H71       -81.7314   23.8695  -71.3609 H         1 UNK         0.1079 
     72 H72       -81.4416   26.2615  -71.0543 H         1 UNK         0.0837 
     73 H73       -80.4908   25.4035  -69.8885 H         1 UNK         0.0837 
     74 H74       -80.4026   28.3755  -70.5907 H         1 UNK         0.0685 
     75 H75       -79.1589   27.8966  -69.4599 H         1 UNK         0.0685 
     76 H76       -79.6216   29.4182  -72.8540 H         1 UNK         0.1434 
     77 H77       -76.4245   32.2255  -72.3459 H         1 UNK         0.1329 
     78 H78       -77.1901   29.2698  -69.3287 H         1 UNK         0.1335 
     79 H79       -75.5458   32.4650  -69.9526 H         1 UNK         0.0680 
     80 H80       -75.7306   31.1382  -68.8426 H         1 UNK         0.0680 
     81 H81       -74.1887   32.5626  -71.8826 H         1 UNK         0.1032 
     82 H82       -72.5203   32.1318  -71.6981 H         1 UNK         0.1032 
     83 H83       -74.5471   30.4218  -73.2280 H         1 UNK         0.0461 
     84 H84       -72.6828   32.0556  -76.2516 H         1 UNK         0.3453 
     85 H85       -72.2666   30.5566  -75.4604 H         1 UNK         0.3453 
     86 H86       -71.5776   30.1662  -73.2072 H         1 UNK         0.2984 
     87 H87       -70.6729   28.1525  -73.5203 H         1 UNK         0.0554 
     88 H88       -70.8983   28.4171  -71.0431 H         1 UNK         0.0847 
     89 H89       -70.1532   26.8786  -71.4431 H         1 UNK         0.0847 
     90 H90       -71.8481   26.9429  -70.9548 H         1 UNK         0.0847 
     91 H91       -71.8417   25.5587  -72.9874 H         1 UNK         0.3141 
     92 H92       -70.9395   24.3146  -75.7301 H         1 UNK         0.0743 
     93 H93       -73.3374   23.9990  -73.8341 H         1 UNK         0.0784 
     94 H94       -72.5342   22.6742  -74.6661 H         1 UNK         0.0784 
     95 H95       -71.6545   23.6021  -73.4723 H         1 UNK         0.0784 
     96 H96       -73.6807   25.2098  -76.3766 H         1 UNK         0.3213 
     97 H97       -73.3802   23.8898  -79.6353 H         1 UNK         0.0855 
     98 H98       -75.3272   22.7585  -77.5600 H         1 UNK         0.0814 
     99 H99       -74.2835   21.8209  -78.6154 H         1 UNK         0.0814 
    100 H100      -75.5829   22.7824  -79.3025 H         1 UNK         0.0814 
    101 H101      -75.5944   25.1404  -78.3092 H         1 UNK         0.3105 
    102 H102      -74.5943   28.4776  -79.1875 H         1 UNK         0.0547 
    103 H103      -75.5654   27.4278  -81.2200 H         1 UNK         0.0837 
    104 H104      -76.7365   26.5549  -80.2416 H         1 UNK         0.0837 
    105 H105      -76.7901   28.3148  -80.3279 H         1 UNK         0.0837 
    106 H106      -76.7473   26.9746  -77.7953 H         1 UNK         0.3020 
    107 H107      -75.9785   28.4447  -74.6510 H         1 UNK         0.1245 
    108 H108      -78.5058   28.9522  -74.9214 H         1 UNK         0.0781 
    109 H109      -78.2359   29.1165  -76.6247 H         1 UNK         0.0781 
    110 H110      -79.3988   31.2848  -74.3920 H         1 UNK         0.0836 
    111 H111      -78.3017   32.5884  -74.0204 H         1 UNK         0.0836 
    112 H112      -78.0676   26.7087  -75.4351 H         1 UNK         0.3022 
    113 H113      -76.2945   23.6765  -75.7056 H         1 UNK         0.0747 
    114 H114      -77.6580   22.8581  -73.7867 H         1 UNK         0.0793 
    115 H115      -76.2695   23.7866  -73.2367 H         1 UNK         0.0793 
    116 H116      -77.8660   24.5196  -73.2292 H         1 UNK         0.0793 
    117 H117      -79.0787   24.1246  -75.4378 H         1 UNK         0.3047 
    118 H118      -79.7846   25.6682  -78.4930 H         1 UNK         0.0822 
    119 H119      -81.0138   23.6535  -79.2597 H         1 UNK         0.0807 
    120 H120      -80.0905   22.6343  -78.1536 H         1 UNK         0.0807 
    121 H121      -79.2903   23.4296  -79.5021 H         1 UNK         0.0807 
    122 H122      -81.5372   24.1943  -76.8522 H         1 UNK         0.2946 
    123 H123      -82.5928   26.8427  -74.9716 H         1 UNK         0.1144 
    124 H124      -84.1708   24.9639  -74.8477 H         1 UNK         0.0793 
    125 H125      -82.9816   23.8383  -75.4830 H         1 UNK         0.0793 
    126 H126      -83.6209   25.1295  -76.5019 H         1 UNK         0.0793 
    127 H127      -82.1281   26.1014  -72.9260 H         1 UNK         0.2896 
@<TRIPOS>BOND
     1    1    2 1    
     2    1   67 1    
     3    1   68 1    
     4    1   69 1    
     5    2    3 2    
     6    2    4 am   BACKBONE|DICT|INTERRES
     7    4    5 1    
     8    4   70 1    
     9    5    6 1    
    10    5   65 1    
    11    5   71 1    
    12    6    7 1    
    13    6   72 1    
    14    6   73 1    
    15    7    8 1    
    16    8    9 1    
    17    8   74 1    
    18    8   75 1    
    19    9   10 ar   
    20    9   14 ar   
    21   10   11 ar   
    22   10   76 1    
    23   11   12 ar   
    24   11   48 1    
    25   12   13 ar   
    26   12   77 1    
    27   13   14 ar   
    28   13   15 1    
    29   14   78 1    
    30   15   16 1    
    31   15   79 1    
    32   15   80 1    
    33   16   17 1    
    34   17   18 1    
    35   17   81 1    
    36   17   82 1    
    37   18   19 1    
    38   18   22 1    
    39   18   83 1    
    40   19   20 am   BACKBONE|DICT|INTERRES
    41   19   21 2    
    42   20   84 1    
    43   20   85 1    
    44   22   23 am   BACKBONE|DICT|INTERRES
    45   22   86 1    
    46   23   24 2    
    47   23   25 1    
    48   25   26 1    
    49   25   27 1    
    50   25   87 1    
    51   26   88 1    
    52   26   89 1    
    53   26   90 1    
    54   27   28 am   BACKBONE|DICT|INTERRES
    55   27   91 1    
    56   28   29 2    
    57   28   30 1    
    58   30   31 1    
    59   30   32 1    
    60   30   92 1    
    61   31   93 1    
    62   31   94 1    
    63   31   95 1    
    64   32   33 am   BACKBONE|DICT|INTERRES
    65   32   96 1    
    66   33   34 2    
    67   33   35 1    
    68   35   36 1    
    69   35   37 1    
    70   35   97 1    
    71   36   98 1    
    72   36   99 1    
    73   36  100 1    
    74   37   38 am   BACKBONE|DICT|INTERRES
    75   37  101 1    
    76   38   39 2    
    77   38   40 1    
    78   40   41 1    
    79   40   42 1    
    80   40  102 1    
    81   41  103 1    
    82   41  104 1    
    83   41  105 1    
    84   42   43 am   BACKBONE|DICT|INTERRES
    85   42  106 1    
    86   43   44 2    
    87   43   45 1    
    88   45   46 1    
    89   45   49 1    
    90   45  107 1    
    91   46   47 1    
    92   46  108 1    
    93   46  109 1    
    94   47   48 1    
    95   48  110 1    
    96   48  111 1    
    97   49   50 am   BACKBONE|DICT|INTERRES
    98   49  112 1    
    99   50   51 2    
   100   50   52 1    
   101   52   53 1    
   102   52   54 1    
   103   52  113 1    
   104   53  114 1    
   105   53  115 1    
   106   53  116 1    
   107   54   55 am   BACKBONE|DICT|INTERRES
   108   54  117 1    
   109   55   56 2    
   110   55   57 1    
   111   57   58 1    
   112   57   59 1    
   113   57  118 1    
   114   58  119 1    
   115   58  120 1    
   116   58  121 1    
   117   59   60 am   BACKBONE|DICT|INTERRES
   118   59  122 1    
   119   60   61 2    
   120   60   62 1    
   121   62   63 1    
   122   62   64 1    
   123   62  123 1    
   124   63  124 1    
   125   63  125 1    
   126   63  126 1    
   127   64   65 am   BACKBONE|DICT|INTERRES
   128   64  127 1    
   129   65   66 2    
@<TRIPOS>SUBSTRUCTURE
     1 UNK         1 GROUP             0       ****    0 ROOT    
