@<TRIPOS>MOLECULE
3R135
127   129    1
SMALL
USER_CHARGES


@<TRIPOS>ATOM
      1 CA        -83.9777   27.0287  -71.1179 C.3       0 UNK        -0.1998 
      2 C         -82.9719   27.0188  -72.2592 C.2       0 UNK         0.4909 
      3 O         -81.9941   26.2727  -72.1983 O.2       0 UNK        -0.5240 
      4 N         -83.2036   27.8540  -73.2839 N.am      1 UNK        -0.4739 
      5 CA        -82.3988   27.9920  -74.5094 C.3       1 UNK         0.0864 
      6 C6        -80.9448   28.4877  -74.2313 C.3       11 UNK        -0.0881 
      7 S7        -80.9138   30.2202  -73.6556 S.3       11 UNK        -0.2682 
      8 C8        -80.7830   30.0601  -71.8454 C.3       11 UNK         0.0289 
      9 C9        -79.3928   29.6413  -71.3892 C.ar      11 UNK        -0.0687 
     10 C10       -79.1510   28.3328  -70.9602 C.ar      11 UNK        -0.0823 
     11 C11       -77.8846   27.9585  -70.4985 C.ar      11 UNK        -0.0830 
     12 C12       -76.8641   28.9148  -70.4433 C.ar      11 UNK        -0.1021 
     13 C13       -77.0801   30.2110  -70.9180 C.ar      11 UNK        -0.0753 
     14 C14       -78.3503   30.5724  -71.3765 C.ar      11 UNK        -0.0933 
     15 C15       -75.9368   31.2129  -70.9675 C.3       11 UNK         0.0166 
     16 S16       -74.9424   30.9988  -72.4817 S.3       11 UNK        -0.2615 
     17 C17       -73.7814   29.6757  -71.9912 C.3       11 UNK        -0.0865 
     18 CA        -72.4093   29.8142  -72.7053 C.3       10 UNK         0.0862 
     19 C         -71.2955   28.9756  -72.0060 C.2       10 UNK         0.5551 
     20 N         -70.4553   28.2344  -72.7184 N.am      10 UNK        -0.7319 
     21 O         -71.1775   29.0090  -70.7836 O.2       10 UNK        -0.5018 
     22 N         -72.5316   29.5552  -74.1498 N.am      10 UNK        -0.4509 
     23 C         -71.7847   30.1231  -75.1029 C.2       10 UNK         0.4899 
     24 O         -70.9613   31.0154  -74.8917 O.2       10 UNK        -0.4839 
     25 CA        -71.9745   29.5573  -76.5250 C.3       9 UNK         0.0222 
     26 CB        -71.0040   30.1707  -77.5560 C.3       9 UNK        -0.1966 
     27 N         -71.9014   28.0902  -76.5549 N.am      9 UNK        -0.4218 
     28 C         -70.8899   27.3127  -76.1363 C.2       9 UNK         0.5020 
     29 O         -69.8334   27.7524  -75.6813 O.2       9 UNK        -0.5274 
     30 CA        -71.0902   25.7853  -76.1777 C.3       8 UNK         0.0270 
     31 CB        -71.2168   25.2303  -74.7487 C.3       8 UNK        -0.1976 
     32 N         -72.2568   25.3574  -76.9524 N.am      8 UNK        -0.4313 
     33 C         -72.3431   25.3656  -78.2893 C.2       8 UNK         0.5041 
     34 O         -71.4198   25.6912  -79.0360 O.2       8 UNK        -0.5577 
     35 CA        -73.7061   24.9802  -78.8888 C.3       7 UNK         0.0284 
     36 CB        -73.8576   23.4526  -78.9763 C.3       7 UNK        -0.1958 
     37 N         -74.8214   25.5462  -78.1247 N.am      7 UNK        -0.4454 
     38 C         -75.1277   26.8510  -78.0843 C.2       7 UNK         0.5089 
     39 O         -74.5397   27.7155  -78.7332 O.2       7 UNK        -0.5125 
     40 CA        -76.2492   27.2670  -77.1208 C.3       6 UNK         0.0408 
     41 CB        -77.6279   27.1146  -77.7832 C.3       6 UNK        -0.1791 
     42 N         -76.2085   26.5020  -75.8730 N.am      6 UNK        -0.4762 
     43 C         -75.2937   26.6914  -74.9092 C.2       6 UNK         0.5007 
     44 O         -74.4017   27.5374  -74.9723 O.2       6 UNK        -0.5032 
     45 CA        -75.3782   25.7936  -73.6577 C.3       5 UNK         0.0783 
     46 C46       -76.3602   26.4350  -72.6538 C.3       11 UNK        -0.0857 
     47 S47       -76.1746   25.7751  -70.9651 S.3       11 UNK        -0.2512 
     48 C48       -77.6147   26.5085  -70.1052 C.3       11 UNK         0.0225 
     49 N         -75.7577   24.4103  -73.9530 N.am      5 UNK        -0.4615 
     50 C         -75.1795   23.5939  -74.8438 C.2       4 UNK         0.5053 
     51 O         -74.1494   23.8691  -75.4569 O.2       4 UNK        -0.5105 
     52 CA        -75.9248   22.2829  -75.1662 C.3       4 UNK         0.0263 
     53 CB        -75.3396   21.1218  -74.3481 C.3       4 UNK        -0.1981 
     54 N         -77.3802   22.3500  -74.9530 N.am      4 UNK        -0.4224 
     55 C         -78.2001   23.2556  -75.5092 C.2       3 UNK         0.4895 
     56 O         -77.8137   24.1156  -76.3056 O.2       3 UNK        -0.5091 
     57 CA        -79.6639   23.2471  -75.0319 C.3       3 UNK         0.0250 
     58 CB        -79.7524   23.4537  -73.5072 C.3       3 UNK        -0.1996 
     59 N         -80.4207   24.3204  -75.6741 N.am      3 UNK        -0.4254 
     60 C         -80.9553   24.2798  -76.9004 C.2       2 UNK         0.5004 
     61 O         -80.9828   23.2635  -77.5971 O.2       2 UNK        -0.5226 
     62 CA        -81.5242   25.6032  -77.4593 C.3       2 UNK         0.0269 
     63 CB        -82.8409   25.3914  -78.2377 C.3       2 UNK        -0.1926 
     64 N         -81.6588   26.6869  -76.4670 N.am      2 UNK        -0.4687 
     65 C         -82.4704   26.7216  -75.3969 C.2       1 UNK         0.5165 
     66 O         -83.2662   25.8176  -75.1288 O.2       1 UNK        -0.5079 
     67 H67       -84.7803   27.7465  -71.2863 H         1 UNK         0.0900 
     68 H68       -84.4238   26.0410  -71.0043 H         1 UNK         0.0900 
     69 H69       -83.4810   27.2884  -70.1835 H         1 UNK         0.0900 
     70 H70       -84.0414   28.4185  -73.2665 H         1 UNK         0.2959 
     71 H71       -82.8994   28.7600  -75.1017 H         1 UNK         0.1079 
     72 H72       -80.4253   27.8427  -73.5226 H         1 UNK         0.0837 
     73 H73       -80.3350   28.4739  -75.1349 H         1 UNK         0.0837 
     74 H74       -81.5377   29.3665  -71.4768 H         1 UNK         0.0685 
     75 H75       -81.0247   31.0251  -71.3977 H         1 UNK         0.0685 
     76 H76       -79.9496   27.6039  -70.9938 H         1 UNK         0.1434 
     77 H77       -75.8827   28.6292  -70.0907 H         1 UNK         0.1329 
     78 H78       -78.5282   31.5774  -71.7345 H         1 UNK         0.1335 
     79 H79       -76.3335   32.2292  -70.9550 H         1 UNK         0.0680 
     80 H80       -75.3102   31.1247  -70.0789 H         1 UNK         0.0680 
     81 H81       -73.6558   29.7209  -70.9083 H         1 UNK         0.1032 
     82 H82       -74.2271   28.7037  -72.2029 H         1 UNK         0.1032 
     83 H83       -72.0889   30.8497  -72.5759 H         1 UNK         0.0461 
     84 H84       -70.4769   28.2388  -73.7299 H         1 UNK         0.3453 
     85 H85       -69.7409   27.7122  -72.2372 H         1 UNK         0.3453 
     86 H86       -73.1859   28.8239  -74.4207 H         1 UNK         0.2984 
     87 H87       -72.9895   29.8187  -76.8283 H         1 UNK         0.0554 
     88 H88       -71.1871   29.7754  -78.5552 H         1 UNK         0.0847 
     89 H89       -69.9625   29.9707  -77.3019 H         1 UNK         0.0847 
     90 H90       -71.1237   31.2534  -77.6089 H         1 UNK         0.0847 
     91 H91       -72.7455   27.6236  -76.8580 H         1 UNK         0.3141 
     92 H92       -70.1986   25.3524  -76.6361 H         1 UNK         0.0743 
     93 H93       -72.0793   25.6503  -74.2300 H         1 UNK         0.0784 
     94 H94       -71.3231   24.1452  -74.7511 H         1 UNK         0.0784 
     95 H95       -70.3326   25.4667  -74.1554 H         1 UNK         0.0784 
     96 H96       -73.0412   24.9830  -76.4204 H         1 UNK         0.3213 
     97 H97       -73.7499   25.3848  -79.9026 H         1 UNK         0.0855 
     98 H98       -73.8224   22.9812  -77.9938 H         1 UNK         0.0814 
     99 H99       -73.0553   23.0174  -79.5736 H         1 UNK         0.0814 
    100 H100      -74.7996   23.1737  -79.4488 H         1 UNK         0.0814 
    101 H101      -75.3457   24.9146  -77.5352 H         1 UNK         0.3105 
    102 H102      -76.1089   28.3229  -76.8786 H         1 UNK         0.0547 
    103 H103      -77.6987   27.7352  -78.6773 H         1 UNK         0.0837 
    104 H104      -77.8231   26.0857  -78.0872 H         1 UNK         0.0837 
    105 H105      -78.4270   27.4233  -77.1098 H         1 UNK         0.0837 
    106 H106      -76.8718   25.7362  -75.7895 H         1 UNK         0.3020 
    107 H107      -74.3794   25.7731  -73.2168 H         1 UNK         0.1245 
    108 H108      -77.3939   26.3032  -72.9803 H         1 UNK         0.0781 
    109 H109      -76.1981   27.5123  -72.6065 H         1 UNK         0.0781 
    110 H110      -77.4510   26.4544  -69.0282 H         1 UNK         0.0836 
    111 H111      -78.4871   25.8873  -70.3147 H         1 UNK         0.0836 
    112 H112      -76.5825   24.0758  -73.4791 H         1 UNK         0.3022 
    113 H113      -75.7610   22.0738  -76.2253 H         1 UNK         0.0747 
    114 H114      -75.7831   20.1686  -74.6365 H         1 UNK         0.0793 
    115 H115      -74.2634   21.0366  -74.5071 H         1 UNK         0.0793 
    116 H116      -75.5009   21.2592  -73.2781 H         1 UNK         0.0793 
    117 H117      -77.7701   21.6751  -74.3104 H         1 UNK         0.3047 
    118 H118      -80.1076   22.2838  -75.2924 H         1 UNK         0.0822 
    119 H119      -79.2592   24.3745  -73.1919 H         1 UNK         0.0807 
    120 H120      -79.2923   22.6302  -72.9604 H         1 UNK         0.0807 
    121 H121      -80.7905   23.5100  -73.1776 H         1 UNK         0.0807 
    122 H122      -80.4384   25.2043  -75.1896 H         1 UNK         0.2946 
    123 H123      -80.7792   25.9498  -78.1776 H         1 UNK         0.1144 
    124 H124      -83.2169   26.3295  -78.6456 H         1 UNK         0.0793 
    125 H125      -83.6210   24.9604  -77.6098 H         1 UNK         0.0793 
    126 H126      -82.6935   24.7121  -79.0783 H         1 UNK         0.0793 
    127 H127      -81.0611   27.4858  -76.6288 H         1 UNK         0.2896 
@<TRIPOS>BOND
     1    1    2 1    
     2    1   67 1    
     3    1   68 1    
     4    1   69 1    
     5    2    3 2    
     6    2    4 am   BACKBONE|DICT|INTERRES
     7    4    5 1    
     8    4   70 1    
     9    5    6 1    
    10    5   65 1    
    11    5   71 1    
    12    6    7 1    
    13    6   72 1    
    14    6   73 1    
    15    7    8 1    
    16    8    9 1    
    17    8   74 1    
    18    8   75 1    
    19    9   10 ar   
    20    9   14 ar   
    21   10   11 ar   
    22   10   76 1    
    23   11   12 ar   
    24   11   48 1    
    25   12   13 ar   
    26   12   77 1    
    27   13   14 ar   
    28   13   15 1    
    29   14   78 1    
    30   15   16 1    
    31   15   79 1    
    32   15   80 1    
    33   16   17 1    
    34   17   18 1    
    35   17   81 1    
    36   17   82 1    
    37   18   19 1    
    38   18   22 1    
    39   18   83 1    
    40   19   20 am   BACKBONE|DICT|INTERRES
    41   19   21 2    
    42   20   84 1    
    43   20   85 1    
    44   22   23 am   BACKBONE|DICT|INTERRES
    45   22   86 1    
    46   23   24 2    
    47   23   25 1    
    48   25   26 1    
    49   25   27 1    
    50   25   87 1    
    51   26   88 1    
    52   26   89 1    
    53   26   90 1    
    54   27   28 am   BACKBONE|DICT|INTERRES
    55   27   91 1    
    56   28   29 2    
    57   28   30 1    
    58   30   31 1    
    59   30   32 1    
    60   30   92 1    
    61   31   93 1    
    62   31   94 1    
    63   31   95 1    
    64   32   33 am   BACKBONE|DICT|INTERRES
    65   32   96 1    
    66   33   34 2    
    67   33   35 1    
    68   35   36 1    
    69   35   37 1    
    70   35   97 1    
    71   36   98 1    
    72   36   99 1    
    73   36  100 1    
    74   37   38 am   BACKBONE|DICT|INTERRES
    75   37  101 1    
    76   38   39 2    
    77   38   40 1    
    78   40   41 1    
    79   40   42 1    
    80   40  102 1    
    81   41  103 1    
    82   41  104 1    
    83   41  105 1    
    84   42   43 am   BACKBONE|DICT|INTERRES
    85   42  106 1    
    86   43   44 2    
    87   43   45 1    
    88   45   46 1    
    89   45   49 1    
    90   45  107 1    
    91   46   47 1    
    92   46  108 1    
    93   46  109 1    
    94   47   48 1    
    95   48  110 1    
    96   48  111 1    
    97   49   50 am   BACKBONE|DICT|INTERRES
    98   49  112 1    
    99   50   51 2    
   100   50   52 1    
   101   52   53 1    
   102   52   54 1    
   103   52  113 1    
   104   53  114 1    
   105   53  115 1    
   106   53  116 1    
   107   54   55 am   BACKBONE|DICT|INTERRES
   108   54  117 1    
   109   55   56 2    
   110   55   57 1    
   111   57   58 1    
   112   57   59 1    
   113   57  118 1    
   114   58  119 1    
   115   58  120 1    
   116   58  121 1    
   117   59   60 am   BACKBONE|DICT|INTERRES
   118   59  122 1    
   119   60   61 2    
   120   60   62 1    
   121   62   63 1    
   122   62   64 1    
   123   62  123 1    
   124   63  124 1    
   125   63  125 1    
   126   63  126 1    
   127   64   65 am   BACKBONE|DICT|INTERRES
   128   64  127 1    
   129   65   66 2    
@<TRIPOS>SUBSTRUCTURE
     1 UNK         1 GROUP             0       ****    0 ROOT    
