@<TRIPOS>MOLECULE
3R135
127   129    1
SMALL
USER_CHARGES


@<TRIPOS>ATOM
      1 CA        -85.4529   29.5317  -77.3452 C.3       0 UNK        -0.1998 
      2 C         -83.9944   29.3216  -76.9663 C.2       0 UNK         0.4909 
      3 O         -83.1053   29.7444  -77.7053 O.2       0 UNK        -0.5240 
      4 N         -83.7464   28.6806  -75.8163 N.am      1 UNK        -0.4739 
      5 CA        -82.4144   28.3344  -75.3100 C.3       1 UNK         0.0864 
      6 C6        -82.4811   28.0000  -73.7944 C.3       11 UNK        -0.0881 
      7 S7        -80.9156   27.4198  -73.0662 S.3       11 UNK        -0.2682 
      8 C8        -80.2598   28.9314  -72.2839 C.3       11 UNK         0.0289 
      9 C9        -78.8253   28.7380  -71.8001 C.ar      11 UNK        -0.0687 
     10 C10       -78.5111   27.6796  -70.9423 C.ar      11 UNK        -0.0823 
     11 C11       -77.1948   27.4688  -70.5291 C.ar      11 UNK        -0.0830 
     12 C12       -76.1954   28.3487  -70.9412 C.ar      11 UNK        -0.1021 
     13 C13       -76.4796   29.4040  -71.8126 C.ar      11 UNK        -0.0753 
     14 C14       -77.8034   29.5942  -72.2319 C.ar      11 UNK        -0.0933 
     15 C15       -75.3703   30.2936  -72.3786 C.3       11 UNK         0.0166 
     16 S16       -74.0640   30.7685  -71.1922 S.3       11 UNK        -0.2615 
     17 C17       -72.8515   29.4006  -71.3092 C.3       11 UNK        -0.0865 
     18 CA        -71.7172   29.6766  -72.3272 C.3       10 UNK         0.0862 
     19 C         -70.5181   28.7215  -72.0942 C.2       10 UNK         0.5551 
     20 N         -69.4192   29.2234  -71.5481 N.am      10 UNK        -0.7319 
     21 O         -70.5938   27.5238  -72.3609 O.2       10 UNK        -0.5018 
     22 N         -72.2028   29.5370  -73.7038 N.am      10 UNK        -0.4509 
     23 C         -71.6946   30.1873  -74.7560 C.2       10 UNK         0.4899 
     24 O         -70.8133   31.0450  -74.6728 O.2       10 UNK        -0.4839 
     25 CA        -72.2824   29.8108  -76.1282 C.3       9 UNK         0.0222 
     26 CB        -71.6052   30.5441  -77.3059 C.3       9 UNK        -0.1966 
     27 N         -72.3024   28.3610  -76.3527 N.am      9 UNK        -0.4218 
     28 C         -71.2536   27.5231  -76.4051 C.2       9 UNK         0.5020 
     29 O         -70.0814   27.8862  -76.2970 O.2       9 UNK        -0.5274 
     30 CA        -71.5386   26.0194  -76.6077 C.3       8 UNK         0.0270 
     31 CB        -71.1664   25.2341  -75.3389 C.3       8 UNK        -0.1976 
     32 N         -72.9269   25.7121  -76.9639 N.am      8 UNK        -0.4313 
     33 C         -73.5000   25.9628  -78.1490 C.2       8 UNK         0.5041 
     34 O         -72.8914   26.4012  -79.1255 O.2       8 UNK        -0.5577 
     35 CA        -75.0222   25.7407  -78.2404 C.3       7 UNK         0.0284 
     36 CB        -75.3460   24.2864  -78.6164 C.3       7 UNK        -0.1958 
     37 N         -75.7282   26.1049  -77.0057 N.am      7 UNK        -0.4454 
     38 C         -75.7489   27.3383  -76.4782 C.2       7 UNK         0.5089 
     39 O         -75.2141   28.3155  -76.9996 O.2       7 UNK        -0.5125 
     40 CA        -76.4230   27.5005  -75.1114 C.3       6 UNK         0.0408 
     41 CB        -77.9425   27.6008  -75.2666 C.3       6 UNK        -0.1791 
     42 N         -76.0700   26.4068  -74.2039 N.am      6 UNK        -0.4762 
     43 C         -74.8773   26.2946  -73.5994 C.2       6 UNK         0.5007 
     44 O         -73.9942   27.1495  -73.6902 O.2       6 UNK        -0.5032 
     45 CA        -74.5824   24.9866  -72.8294 C.3       5 UNK         0.0783 
     46 C46       -74.7864   25.1065  -71.2940 C.3       11 UNK        -0.0857 
     47 S47       -76.4981   24.8093  -70.7114 S.3       11 UNK        -0.2512 
     48 C48       -76.8426   26.2654  -69.6731 C.3       11 UNK         0.0225 
     49 N         -75.2835   23.8289  -73.3916 N.am      5 UNK        -0.4615 
     50 C         -75.0366   23.2892  -74.5908 C.2       4 UNK         0.5053 
     51 O         -74.1366   23.6725  -75.3356 O.2       4 UNK        -0.5105 
     52 CA        -75.9888   22.1736  -75.0569 C.3       4 UNK         0.0263 
     53 CB        -75.5012   20.8052  -74.5564 C.3       4 UNK        -0.1981 
     54 N         -77.3789   22.3882  -74.6348 N.am      4 UNK        -0.4224 
     55 C         -78.1307   23.4323  -75.0114 C.2       3 UNK         0.4895 
     56 O         -77.7293   24.3172  -75.7698 O.2       3 UNK        -0.5091 
     57 CA        -79.5228   23.5369  -74.3627 C.3       3 UNK         0.0250 
     58 CB        -79.4005   24.1549  -72.9603 C.3       3 UNK        -0.1996 
     59 N         -80.4747   24.3297  -75.1487 N.am      3 UNK        -0.4254 
     60 C         -80.9717   23.9679  -76.3407 C.2       2 UNK         0.5004 
     61 O         -80.6620   22.9191  -76.9092 O.2       2 UNK        -0.5226 
     62 CA        -82.0220   24.8857  -77.0032 C.3       2 UNK         0.0269 
     63 CB        -83.2922   24.0943  -77.3652 C.3       2 UNK        -0.1926 
     64 N         -82.4184   26.0404  -76.1881 N.am      2 UNK        -0.4687 
     65 C         -81.7850   27.2211  -76.1791 C.2       1 UNK         0.5165 
     66 O         -80.7742   27.4545  -76.8410 O.2       1 UNK        -0.5079 
     67 H67       -85.6652   30.5958  -77.4449 H         1 UNK         0.0900 
     68 H68       -86.1325   29.1192  -76.5996 H         1 UNK         0.0900 
     69 H69       -85.6651   29.0509  -78.2997 H         1 UNK         0.0900 
     70 H70       -84.5259   28.3648  -75.2565 H         1 UNK         0.2959 
     71 H71       -81.7763   29.2144  -75.4206 H         1 UNK         0.1079 
     72 H72       -82.8272   28.8732  -73.2388 H         1 UNK         0.0837 
     73 H73       -83.2262   27.2239  -73.6115 H         1 UNK         0.0837 
     74 H74       -80.8918   29.2057  -71.4383 H         1 UNK         0.0685 
     75 H75       -80.3149   29.7526  -73.0002 H         1 UNK         0.0685 
     76 H76       -79.2882   26.9972  -70.6257 H         1 UNK         0.1434 
     77 H77       -75.1904   28.1808  -70.5960 H         1 UNK         0.1329 
     78 H78       -78.0358   30.3976  -72.9174 H         1 UNK         0.1335 
     79 H79       -74.9149   29.7955  -73.2331 H         1 UNK         0.0680 
     80 H80       -75.8056   31.2163  -72.7649 H         1 UNK         0.0680 
     81 H81       -72.4383   29.2691  -70.3071 H         1 UNK         0.1032 
     82 H82       -73.3384   28.4587  -71.5536 H         1 UNK         0.1032 
     83 H83       -71.3742   30.7023  -72.1740 H         1 UNK         0.0461 
     84 H84       -68.6359   28.6132  -71.3743 H         1 UNK         0.3453 
     85 H85       -69.3515   30.2033  -71.3199 H         1 UNK         0.3453 
     86 H86       -72.8644   28.7816  -73.8577 H         1 UNK         0.2984 
     87 H87       -73.3259   30.1279  -76.1060 H         1 UNK         0.0554 
     88 H88       -72.0676   30.2775  -78.2563 H         1 UNK         0.0847 
     89 H89       -70.5418   30.3124  -77.3733 H         1 UNK         0.0847 
     90 H90       -71.6944   31.6253  -77.1946 H         1 UNK         0.0847 
     91 H91       -73.2289   27.9679  -76.4734 H         1 UNK         0.3141 
     92 H92       -70.8982   25.6753  -77.4223 H         1 UNK         0.0743 
     93 H93       -70.1139   25.3723  -75.0878 H         1 UNK         0.0784 
     94 H94       -71.7481   25.5662  -74.4786 H         1 UNK         0.0784 
     95 H95       -71.3313   24.1641  -75.4669 H         1 UNK         0.0784 
     96 H96       -73.4848   25.2424  -76.2550 H         1 UNK         0.3213 
     97 H97       -75.4011   26.3886  -79.0337 H         1 UNK         0.0855 
     98 H98       -74.9573   23.5813  -77.8824 H         1 UNK         0.0814 
     99 H99       -74.9035   24.0277  -79.5792 H         1 UNK         0.0814 
    100 H100      -76.4213   24.1261  -78.6991 H         1 UNK         0.0814 
    101 H101      -76.2484   25.3718  -76.5305 H         1 UNK         0.3105 
    102 H102      -76.0769   28.4368  -74.6731 H         1 UNK         0.0547 
    103 H103      -78.4242   27.6392  -74.2955 H         1 UNK         0.0837 
    104 H104      -78.2209   28.5066  -75.8061 H         1 UNK         0.0837 
    105 H105      -78.3639   26.7590  -75.8137 H         1 UNK         0.0837 
    106 H106      -76.7277   25.6433  -74.1347 H         1 UNK         0.3020 
    107 H107      -73.5159   24.8071  -72.9840 H         1 UNK         0.1245 
    108 H108      -74.4115   26.0606  -70.9236 H         1 UNK         0.0781 
    109 H109      -74.1646   24.3559  -70.8039 H         1 UNK         0.0781 
    110 H110      -75.9871   26.4786  -69.0303 H         1 UNK         0.0836 
    111 H111      -77.6735   26.0330  -69.0053 H         1 UNK         0.0836 
    112 H112      -76.0396   23.4618  -72.8319 H         1 UNK         0.3022 
    113 H113      -75.9731   22.1626  -76.1485 H         1 UNK         0.0747 
    114 H114      -76.1152   19.9959  -74.9520 H         1 UNK         0.0793 
    115 H115      -74.4754   20.6168  -74.8768 H         1 UNK         0.0793 
    116 H116      -75.5195   20.7408  -73.4677 H         1 UNK         0.0793 
    117 H117      -77.7716   21.7053  -74.0023 H         1 UNK         0.3047 
    118 H118      -79.9338   22.5297  -74.2666 H         1 UNK         0.0822 
    119 H119      -78.7968   23.5265  -72.3049 H         1 UNK         0.0807 
    120 H120      -80.3755   24.2651  -72.4850 H         1 UNK         0.0807 
    121 H121      -78.9298   25.1389  -72.9905 H         1 UNK         0.0807 
    122 H122      -80.7573   25.2184  -74.7617 H         1 UNK         0.2946 
    123 H123      -81.5751   25.2443  -77.9336 H         1 UNK         0.1144 
    124 H124      -83.0627   23.2627  -78.0330 H         1 UNK         0.0793 
    125 H125      -84.0190   24.7238  -77.8790 H         1 UNK         0.0793 
    126 H126      -83.7737   23.6776  -76.4797 H         1 UNK         0.0793 
    127 H127      -83.2441   25.9280  -75.6175 H         1 UNK         0.2896 
@<TRIPOS>BOND
     1    1    2 1    
     2    1   67 1    
     3    1   68 1    
     4    1   69 1    
     5    2    3 2    
     6    2    4 am   BACKBONE|DICT|INTERRES
     7    4    5 1    
     8    4   70 1    
     9    5    6 1    
    10    5   65 1    
    11    5   71 1    
    12    6    7 1    
    13    6   72 1    
    14    6   73 1    
    15    7    8 1    
    16    8    9 1    
    17    8   74 1    
    18    8   75 1    
    19    9   10 ar   
    20    9   14 ar   
    21   10   11 ar   
    22   10   76 1    
    23   11   12 ar   
    24   11   48 1    
    25   12   13 ar   
    26   12   77 1    
    27   13   14 ar   
    28   13   15 1    
    29   14   78 1    
    30   15   16 1    
    31   15   79 1    
    32   15   80 1    
    33   16   17 1    
    34   17   18 1    
    35   17   81 1    
    36   17   82 1    
    37   18   19 1    
    38   18   22 1    
    39   18   83 1    
    40   19   20 am   BACKBONE|DICT|INTERRES
    41   19   21 2    
    42   20   84 1    
    43   20   85 1    
    44   22   23 am   BACKBONE|DICT|INTERRES
    45   22   86 1    
    46   23   24 2    
    47   23   25 1    
    48   25   26 1    
    49   25   27 1    
    50   25   87 1    
    51   26   88 1    
    52   26   89 1    
    53   26   90 1    
    54   27   28 am   BACKBONE|DICT|INTERRES
    55   27   91 1    
    56   28   29 2    
    57   28   30 1    
    58   30   31 1    
    59   30   32 1    
    60   30   92 1    
    61   31   93 1    
    62   31   94 1    
    63   31   95 1    
    64   32   33 am   BACKBONE|DICT|INTERRES
    65   32   96 1    
    66   33   34 2    
    67   33   35 1    
    68   35   36 1    
    69   35   37 1    
    70   35   97 1    
    71   36   98 1    
    72   36   99 1    
    73   36  100 1    
    74   37   38 am   BACKBONE|DICT|INTERRES
    75   37  101 1    
    76   38   39 2    
    77   38   40 1    
    78   40   41 1    
    79   40   42 1    
    80   40  102 1    
    81   41  103 1    
    82   41  104 1    
    83   41  105 1    
    84   42   43 am   BACKBONE|DICT|INTERRES
    85   42  106 1    
    86   43   44 2    
    87   43   45 1    
    88   45   46 1    
    89   45   49 1    
    90   45  107 1    
    91   46   47 1    
    92   46  108 1    
    93   46  109 1    
    94   47   48 1    
    95   48  110 1    
    96   48  111 1    
    97   49   50 am   BACKBONE|DICT|INTERRES
    98   49  112 1    
    99   50   51 2    
   100   50   52 1    
   101   52   53 1    
   102   52   54 1    
   103   52  113 1    
   104   53  114 1    
   105   53  115 1    
   106   53  116 1    
   107   54   55 am   BACKBONE|DICT|INTERRES
   108   54  117 1    
   109   55   56 2    
   110   55   57 1    
   111   57   58 1    
   112   57   59 1    
   113   57  118 1    
   114   58  119 1    
   115   58  120 1    
   116   58  121 1    
   117   59   60 am   BACKBONE|DICT|INTERRES
   118   59  122 1    
   119   60   61 2    
   120   60   62 1    
   121   62   63 1    
   122   62   64 1    
   123   62  123 1    
   124   63  124 1    
   125   63  125 1    
   126   63  126 1    
   127   64   65 am   BACKBONE|DICT|INTERRES
   128   64  127 1    
   129   65   66 2    
@<TRIPOS>SUBSTRUCTURE
     1 UNK         1 GROUP             0       ****    0 ROOT    
