@<TRIPOS>MOLECULE
3R135
127   129    1
SMALL
USER_CHARGES


@<TRIPOS>ATOM
      1 CA        -84.4749   24.8850  -74.2688 C.3       0 UNK        -0.1998 
      2 C         -83.6195   26.1346  -74.1282 C.2       0 UNK         0.4909 
      3 O         -83.3663   26.8176  -75.1213 O.2       0 UNK        -0.5240 
      4 N         -83.1678   26.4395  -72.9035 N.am      1 UNK        -0.4739 
      5 CA        -82.2460   27.5420  -72.6077 C.3       1 UNK         0.0864 
      6 C6        -82.1190   27.7733  -71.0820 C.3       11 UNK        -0.0881 
      7 S7        -81.3468   29.3759  -70.6609 S.3       11 UNK        -0.2682 
      8 C8        -80.0042   28.8827  -69.5299 C.3       11 UNK         0.0289 
      9 C9        -78.7817   28.3544  -70.2689 C.ar      11 UNK        -0.0687 
     10 C10       -78.6493   26.9877  -70.5294 C.ar      11 UNK        -0.0823 
     11 C11       -77.5320   26.4855  -71.2038 C.ar      11 UNK        -0.0830 
     12 C12       -76.5240   27.3753  -71.5961 C.ar      11 UNK        -0.1021 
     13 C13       -76.6390   28.7439  -71.3386 C.ar      11 UNK        -0.0753 
     14 C14       -77.7705   29.2296  -70.6766 C.ar      11 UNK        -0.0933 
     15 C15       -75.5421   29.6924  -71.7939 C.3       11 UNK         0.0166 
     16 S16       -75.9849   30.4614  -73.3786 S.3       11 UNK        -0.2615 
     17 C17       -74.3475   30.8709  -74.0632 C.3       11 UNK        -0.0865 
     18 CA        -73.8584   29.8155  -75.0958 C.3       10 UNK         0.0862 
     19 C         -74.6047   29.8955  -76.4565 C.2       10 UNK         0.5551 
     20 N         -74.3728   30.9294  -77.2543 N.am      10 UNK        -0.7319 
     21 O         -75.3740   29.0031  -76.8010 O.2       10 UNK        -0.5018 
     22 N         -72.3967   29.7977  -75.2506 N.am      10 UNK        -0.4509 
     23 C         -71.6021   30.8202  -75.6013 C.2       10 UNK         0.4899 
     24 O         -72.0180   31.9631  -75.7983 O.2       10 UNK        -0.4839 
     25 CA        -70.1007   30.5347  -75.8199 C.3       9 UNK         0.0222 
     26 CB        -69.2052   31.5777  -75.1174 C.3       9 UNK        -0.1966 
     27 N         -69.6846   29.1614  -75.5017 N.am      9 UNK        -0.4218 
     28 C         -69.6314   28.5683  -74.2990 C.2       9 UNK         0.5020 
     29 O         -69.8645   29.1414  -73.2335 O.2       9 UNK        -0.5274 
     30 CA        -69.2993   27.0615  -74.3136 C.3       8 UNK         0.0270 
     31 CB        -69.6148   26.3678  -72.9703 C.3       8 UNK        -0.1976 
     32 N         -69.9369   26.3383  -75.4273 N.am      8 UNK        -0.4313 
     33 C         -71.2510   26.2586  -75.6877 C.2       8 UNK         0.5041 
     34 O         -72.1222   26.8372  -75.0313 O.2       8 UNK        -0.5577 
     35 CA        -71.6587   25.3940  -76.8880 C.3       7 UNK         0.0284 
     36 CB        -71.2740   23.9157  -76.6686 C.3       7 UNK        -0.1958 
     37 N         -73.1030   25.5070  -77.0646 N.am      7 UNK        -0.4454 
     38 C         -73.8051   25.1550  -78.1468 C.2       7 UNK         0.5089 
     39 O         -73.2873   24.7741  -79.1987 O.2       7 UNK        -0.5125 
     40 CA        -75.3438   25.2165  -78.0159 C.3       6 UNK         0.0408 
     41 CB        -76.0690   24.3900  -79.0977 C.3       6 UNK        -0.1791 
     42 N         -75.8360   24.8438  -76.6817 N.am      6 UNK        -0.4762 
     43 C         -75.5847   23.7100  -76.0043 C.2       6 UNK         0.5007 
     44 O         -74.9142   22.7743  -76.4415 O.2       6 UNK        -0.5032 
     45 CA        -76.1913   23.6047  -74.5972 C.3       5 UNK         0.0783 
     46 C46       -75.6306   24.7009  -73.6563 C.3       11 UNK        -0.0857 
     47 S47       -75.8554   24.2752  -71.8963 S.3       11 UNK        -0.2512 
     48 C48       -77.4934   24.9871  -71.5100 C.3       11 UNK         0.0225 
     49 N         -77.6454   23.6828  -74.7153 N.am      5 UNK        -0.4615 
     50 C         -78.4787   22.6350  -74.7056 C.2       4 UNK         0.5053 
     51 O         -78.1150   21.4715  -74.5334 O.2       4 UNK        -0.5105 
     52 CA        -79.9760   22.9253  -74.9240 C.3       4 UNK         0.0263 
     53 CB        -80.7411   22.8718  -73.5913 C.3       4 UNK        -0.1981 
     54 N         -80.2078   24.2189  -75.5739 N.am      4 UNK        -0.4224 
     55 C         -80.0020   24.4383  -76.8826 C.2       3 UNK         0.4895 
     56 O         -79.7002   23.5493  -77.6793 O.2       3 UNK        -0.5091 
     57 CA        -80.1308   25.8805  -77.4059 C.3       3 UNK         0.0250 
     58 CB        -81.4598   26.0631  -78.1563 C.3       3 UNK        -0.1996 
     59 N         -80.0156   26.9140  -76.3746 N.am      3 UNK        -0.4254 
     60 C         -78.9124   27.1753  -75.6580 C.2       2 UNK         0.5004 
     61 O         -77.8623   26.5413  -75.7575 O.2       2 UNK        -0.5226 
     62 CA        -79.0272   28.2946  -74.6101 C.3       2 UNK         0.0269 
     63 CB        -78.8045   29.6604  -75.2779 C.3       2 UNK        -0.1926 
     64 N         -80.3112   28.3207  -73.9011 N.am      2 UNK        -0.4687 
     65 C         -80.8794   27.2821  -73.2729 C.2       1 UNK         0.5165 
     66 O         -80.3894   26.1511  -73.2283 O.2       1 UNK        -0.5079 
     67 H67       -84.6047   24.3701  -73.3170 H         1 UNK         0.0900 
     68 H68       -84.0098   24.1913  -74.9689 H         1 UNK         0.0900 
     69 H69       -85.4610   25.1464  -74.6516 H         1 UNK         0.0900 
     70 H70       -83.3858   25.8287  -72.1295 H         1 UNK         0.2959 
     71 H71       -82.6802   28.4404  -73.0526 H         1 UNK         0.1079 
     72 H72       -83.1125   27.7804  -70.6309 H         1 UNK         0.0837 
     73 H73       -81.5893   26.9480  -70.6055 H         1 UNK         0.0837 
     74 H74       -79.7196   29.7509  -68.9335 H         1 UNK         0.0685 
     75 H75       -80.3730   28.1412  -68.8194 H         1 UNK         0.0685 
     76 H76       -79.4293   26.3069  -70.2192 H         1 UNK         0.1434 
     77 H77       -75.6459   27.0196  -72.1134 H         1 UNK         0.1329 
     78 H78       -77.8652   30.2896  -70.4842 H         1 UNK         0.1335 
     79 H79       -75.3753   30.4686  -71.0456 H         1 UNK         0.0680 
     80 H80       -74.6003   29.1505  -71.8964 H         1 UNK         0.0680 
     81 H81       -74.3933   31.8658  -74.5093 H         1 UNK         0.1032 
     82 H82       -73.6354   30.9524  -73.2406 H         1 UNK         0.1032 
     83 H83       -74.0848   28.8321  -74.6800 H         1 UNK         0.0461 
     84 H84       -74.8404   30.9931  -78.1443 H         1 UNK         0.3453 
     85 H85       -73.6975   31.6292  -76.9734 H         1 UNK         0.3453 
     86 H86       -71.9846   28.8778  -75.1340 H         1 UNK         0.2984 
     87 H87       -69.9380   30.6435  -76.8931 H         1 UNK         0.0554 
     88 H88       -68.1482   31.3775  -75.2920 H         1 UNK         0.0847 
     89 H89       -69.3707   31.5982  -74.0400 H         1 UNK         0.0847 
     90 H90       -69.4084   32.5819  -75.4914 H         1 UNK         0.0847 
     91 H91       -69.4794   28.5818  -76.3041 H         1 UNK         0.3141 
     92 H92       -68.2223   26.9920  -74.4742 H         1 UNK         0.0743 
     93 H93       -70.6730   26.4409  -72.7166 H         1 UNK         0.0784 
     94 H94       -69.3492   25.3110  -72.9974 H         1 UNK         0.0784 
     95 H95       -69.0523   26.8209  -72.1530 H         1 UNK         0.0784 
     96 H96       -69.3027   25.8389  -76.0367 H         1 UNK         0.3213 
     97 H97       -71.1591   25.7825  -77.7778 H         1 UNK         0.0855 
     98 H98       -71.7529   23.5065  -75.7779 H         1 UNK         0.0814 
     99 H99       -70.1974   23.7929  -76.5480 H         1 UNK         0.0814 
    100 H100      -71.5693   23.2958  -77.5153 H         1 UNK         0.0814 
    101 H101      -73.5826   25.8892  -76.2579 H         1 UNK         0.3105 
    102 H102      -75.6192   26.2627  -78.1574 H         1 UNK         0.0547 
    103 H103      -75.8130   24.7412  -80.0980 H         1 UNK         0.0837 
    104 H104      -75.8017   23.3342  -79.0441 H         1 UNK         0.0837 
    105 H105      -77.1516   24.4665  -78.9955 H         1 UNK         0.0837 
    106 H106      -76.4486   25.5356  -76.2489 H         1 UNK         0.3020 
    107 H107      -75.8982   22.6297  -74.2000 H         1 UNK         0.1245 
    108 H108      -76.0831   25.6695  -73.8734 H         1 UNK         0.0781 
    109 H109      -74.5565   24.8298  -73.8076 H         1 UNK         0.0781 
    110 H110      -77.8813   24.4435  -70.6472 H         1 UNK         0.0836 
    111 H111      -78.1840   24.7829  -72.3269 H         1 UNK         0.0836 
    112 H112      -78.0218   24.6016  -74.9153 H         1 UNK         0.3022 
    113 H113      -80.3728   22.1383  -75.5691 H         1 UNK         0.0747 
    114 H114      -81.7998   23.0908  -73.7294 H         1 UNK         0.0793 
    115 H115      -80.6706   21.8791  -73.1448 H         1 UNK         0.0793 
    116 H116      -80.3432   23.5796  -72.8643 H         1 UNK         0.0793 
    117 H117      -80.4228   25.0012  -74.9637 H         1 UNK         0.3047 
    118 H118      -79.3143   26.0353  -78.1146 H         1 UNK         0.0822 
    119 H119      -81.5316   27.0545  -78.6040 H         1 UNK         0.0807 
    120 H120      -82.3173   25.9289  -77.4959 H         1 UNK         0.0807 
    121 H121      -81.5552   25.3369  -78.9648 H         1 UNK         0.0807 
    122 H122      -80.8484   27.4529  -76.1801 H         1 UNK         0.2946 
    123 H123      -78.2427   28.1328  -73.8677 H         1 UNK         0.1144 
    124 H124      -79.5750   29.8831  -76.0169 H         1 UNK         0.0793 
    125 H125      -77.8428   29.6893  -75.7917 H         1 UNK         0.0793 
    126 H126      -78.8014   30.4657  -74.5434 H         1 UNK         0.0793 
    127 H127      -80.7820   29.2135  -73.8709 H         1 UNK         0.2896 
@<TRIPOS>BOND
     1    1    2 1    
     2    1   67 1    
     3    1   68 1    
     4    1   69 1    
     5    2    3 2    
     6    2    4 am   BACKBONE|DICT|INTERRES
     7    4    5 1    
     8    4   70 1    
     9    5    6 1    
    10    5   65 1    
    11    5   71 1    
    12    6    7 1    
    13    6   72 1    
    14    6   73 1    
    15    7    8 1    
    16    8    9 1    
    17    8   74 1    
    18    8   75 1    
    19    9   10 ar   
    20    9   14 ar   
    21   10   11 ar   
    22   10   76 1    
    23   11   12 ar   
    24   11   48 1    
    25   12   13 ar   
    26   12   77 1    
    27   13   14 ar   
    28   13   15 1    
    29   14   78 1    
    30   15   16 1    
    31   15   79 1    
    32   15   80 1    
    33   16   17 1    
    34   17   18 1    
    35   17   81 1    
    36   17   82 1    
    37   18   19 1    
    38   18   22 1    
    39   18   83 1    
    40   19   20 am   BACKBONE|DICT|INTERRES
    41   19   21 2    
    42   20   84 1    
    43   20   85 1    
    44   22   23 am   BACKBONE|DICT|INTERRES
    45   22   86 1    
    46   23   24 2    
    47   23   25 1    
    48   25   26 1    
    49   25   27 1    
    50   25   87 1    
    51   26   88 1    
    52   26   89 1    
    53   26   90 1    
    54   27   28 am   BACKBONE|DICT|INTERRES
    55   27   91 1    
    56   28   29 2    
    57   28   30 1    
    58   30   31 1    
    59   30   32 1    
    60   30   92 1    
    61   31   93 1    
    62   31   94 1    
    63   31   95 1    
    64   32   33 am   BACKBONE|DICT|INTERRES
    65   32   96 1    
    66   33   34 2    
    67   33   35 1    
    68   35   36 1    
    69   35   37 1    
    70   35   97 1    
    71   36   98 1    
    72   36   99 1    
    73   36  100 1    
    74   37   38 am   BACKBONE|DICT|INTERRES
    75   37  101 1    
    76   38   39 2    
    77   38   40 1    
    78   40   41 1    
    79   40   42 1    
    80   40  102 1    
    81   41  103 1    
    82   41  104 1    
    83   41  105 1    
    84   42   43 am   BACKBONE|DICT|INTERRES
    85   42  106 1    
    86   43   44 2    
    87   43   45 1    
    88   45   46 1    
    89   45   49 1    
    90   45  107 1    
    91   46   47 1    
    92   46  108 1    
    93   46  109 1    
    94   47   48 1    
    95   48  110 1    
    96   48  111 1    
    97   49   50 am   BACKBONE|DICT|INTERRES
    98   49  112 1    
    99   50   51 2    
   100   50   52 1    
   101   52   53 1    
   102   52   54 1    
   103   52  113 1    
   104   53  114 1    
   105   53  115 1    
   106   53  116 1    
   107   54   55 am   BACKBONE|DICT|INTERRES
   108   54  117 1    
   109   55   56 2    
   110   55   57 1    
   111   57   58 1    
   112   57   59 1    
   113   57  118 1    
   114   58  119 1    
   115   58  120 1    
   116   58  121 1    
   117   59   60 am   BACKBONE|DICT|INTERRES
   118   59  122 1    
   119   60   61 2    
   120   60   62 1    
   121   62   63 1    
   122   62   64 1    
   123   62  123 1    
   124   63  124 1    
   125   63  125 1    
   126   63  126 1    
   127   64   65 am   BACKBONE|DICT|INTERRES
   128   64  127 1    
   129   65   66 2    
@<TRIPOS>SUBSTRUCTURE
     1 UNK         1 GROUP             0       ****    0 ROOT    
