@<TRIPOS>MOLECULE
3R135
127   129    1
SMALL
USER_CHARGES


@<TRIPOS>ATOM
      1 CA        -77.5152   26.2129  -72.0677 C.3       0 UNK        -0.1998 
      2 C         -78.8786   25.6908  -71.6550 C.2       0 UNK         0.4909 
      3 O         -79.0304   24.4952  -71.4003 O.2       0 UNK        -0.5240 
      4 N         -79.8711   26.5848  -71.5805 N.am      1 UNK        -0.4739 
      5 CA        -81.2601   26.2871  -71.2194 C.3       1 UNK         0.0864 
      6 C6        -82.0977   27.5742  -71.0105 C.3       11 UNK        -0.0881 
      7 S7        -81.4181   28.6528  -69.7023 S.3       11 UNK        -0.2682 
      8 C8        -80.9901   30.1624  -70.6289 C.3       11 UNK         0.0289 
      9 C9        -79.7389   29.9837  -71.4779 C.ar      11 UNK        -0.0687 
     10 C10       -79.8442   29.6823  -72.8397 C.ar      11 UNK        -0.0823 
     11 C11       -78.6982   29.5281  -73.6255 C.ar      11 UNK        -0.0830 
     12 C12       -77.4401   29.6926  -73.0360 C.ar      11 UNK        -0.1021 
     13 C13       -77.3183   30.0057  -71.6793 C.ar      11 UNK        -0.0753 
     14 C14       -78.4734   30.1436  -70.9036 C.ar      11 UNK        -0.0933 
     15 C15       -75.9429   30.2400  -71.0666 C.3       11 UNK         0.0166 
     16 S16       -74.7844   28.8710  -71.3928 S.3       11 UNK        -0.2615 
     17 C17       -73.2078   29.6486  -70.9036 C.3       11 UNK        -0.0865 
     18 CA        -72.5537   30.4574  -72.0550 C.3       10 UNK         0.0862 
     19 C         -71.2783   31.1882  -71.5541 C.2       10 UNK         0.5551 
     20 N         -71.4184   32.4127  -71.0652 N.am      10 UNK        -0.7319 
     21 O         -70.1770   30.6410  -71.5625 O.2       10 UNK        -0.5018 
     22 N         -72.2922   29.6130  -73.2276 N.am      10 UNK        -0.4509 
     23 C         -71.9599   30.0497  -74.4463 C.2       10 UNK         0.4899 
     24 O         -71.8872   31.2426  -74.7440 O.2       10 UNK        -0.4839 
     25 CA        -71.6766   28.9967  -75.5368 C.3       9 UNK         0.0222 
     26 CB        -70.1689   28.6939  -75.6327 C.3       9 UNK        -0.1966 
     27 N         -72.4658   27.7582  -75.4462 N.am      9 UNK        -0.4218 
     28 C         -72.4298   26.7971  -74.5098 C.2       9 UNK         0.5020 
     29 O         -71.7180   26.8377  -73.5055 O.2       9 UNK        -0.5274 
     30 CA        -73.3620   25.5919  -74.7124 C.3       8 UNK         0.0270 
     31 CB        -74.7671   25.9092  -74.1800 C.3       8 UNK        -0.1976 
     32 N         -73.4540   25.1530  -76.1060 N.am      8 UNK        -0.4313 
     33 C         -72.4466   24.6173  -76.8109 C.2       8 UNK         0.5041 
     34 O         -71.3173   24.4207  -76.3606 O.2       8 UNK        -0.5577 
     35 CA        -72.7517   24.2361  -78.2669 C.3       7 UNK         0.0284 
     36 CB        -73.4864   22.8866  -78.3362 C.3       7 UNK        -0.1958 
     37 N         -73.5483   25.2701  -78.9287 N.am      7 UNK        -0.4454 
     38 C         -73.0316   26.3638  -79.5068 C.2       7 UNK         0.5089 
     39 O         -71.8238   26.5797  -79.6089 O.2       7 UNK        -0.5125 
     40 CA        -74.0256   27.3988  -80.0679 C.3       6 UNK         0.0408 
     41 CB        -74.2840   27.1382  -81.5603 C.3       6 UNK        -0.1791 
     42 N         -75.3051   27.4314  -79.3535 N.am      6 UNK        -0.4762 
     43 C         -75.4579   27.8369  -78.0845 C.2       6 UNK         0.5007 
     44 O         -74.5339   28.2460  -77.3815 O.2       6 UNK        -0.5032 
     45 CA        -76.8661   27.6853  -77.4760 C.3       5 UNK         0.0783 
     46 C46       -77.7386   28.9572  -77.6562 C.3       11 UNK        -0.0857 
     47 S47       -77.6719   30.0305  -76.1885 S.3       11 UNK        -0.2512 
     48 C48       -78.8308   29.1380  -75.0935 C.3       11 UNK         0.0225 
     49 N         -77.5699   26.4788  -77.9239 N.am      5 UNK        -0.4615 
     50 C         -77.1522   25.2306  -77.6873 C.2       4 UNK         0.5053 
     51 O         -76.0511   24.9541  -77.2074 O.2       4 UNK        -0.5105 
     52 CA        -78.1264   24.0983  -78.0405 C.3       4 UNK         0.0263 
     53 CB        -77.5789   23.2571  -79.2050 C.3       4 UNK        -0.1981 
     54 N         -78.3651   23.2364  -76.8806 N.am      4 UNK        -0.4224 
     55 C         -78.9433   23.6354  -75.7384 C.2       3 UNK         0.4895 
     56 O         -79.3896   24.7703  -75.5503 O.2       3 UNK        -0.5091 
     57 CA        -78.9920   22.5943  -74.6084 C.3       3 UNK         0.0250 
     58 CB        -77.6597   22.5778  -73.8404 C.3       3 UNK        -0.1996 
     59 N         -80.0889   22.8646  -73.6747 N.am      3 UNK        -0.4254 
     60 C         -81.3799   22.6092  -73.9376 C.2       2 UNK         0.5004 
     61 O         -81.7660   22.0545  -74.9681 O.2       2 UNK        -0.5226 
     62 CA        -82.4253   23.0118  -72.8799 C.3       2 UNK         0.0269 
     63 CB        -82.8529   21.7862  -72.0553 C.3       2 UNK        -0.1926 
     64 N         -81.9547   24.0574  -71.9691 N.am      2 UNK        -0.4687 
     65 C         -81.9051   25.3612  -72.2724 C.2       1 UNK         0.5165 
     66 O         -82.3192   25.8340  -73.3328 O.2       1 UNK        -0.5079 
     67 H67       -77.4926   26.4013  -73.1407 H         1 UNK         0.0900 
     68 H68       -76.7379   25.4891  -71.8251 H         1 UNK         0.0900 
     69 H69       -77.2834   27.1393  -71.5449 H         1 UNK         0.0900 
     70 H70       -79.6787   27.5556  -71.7888 H         1 UNK         0.2959 
     71 H71       -81.2404   25.7531  -70.2666 H         1 UNK         0.1079 
     72 H72       -82.1903   28.1341  -71.9420 H         1 UNK         0.0837 
     73 H73       -83.1172   27.3133  -70.7201 H         1 UNK         0.0837 
     74 H74       -81.8367   30.4684  -71.2456 H         1 UNK         0.0685 
     75 H75       -80.8302   30.9734  -69.9167 H         1 UNK         0.0685 
     76 H76       -80.8212   29.5609  -73.2877 H         1 UNK         0.1434 
     77 H77       -76.5460   29.5760  -73.6331 H         1 UNK         0.1329 
     78 H78       -78.3917   30.3885  -69.8533 H         1 UNK         0.1335 
     79 H79       -76.0171   30.3867  -69.9879 H         1 UNK         0.0680 
     80 H80       -75.5392   31.1645  -71.4809 H         1 UNK         0.0680 
     81 H81       -73.3855   30.2849  -70.0343 H         1 UNK         0.1032 
     82 H82       -72.5322   28.8608  -70.5644 H         1 UNK         0.1032 
     83 H83       -73.2653   31.2217  -72.3734 H         1 UNK         0.0461 
     84 H84       -70.6051   32.8980  -70.7196 H         1 UNK         0.3453 
     85 H85       -72.3176   32.8683  -71.0461 H         1 UNK         0.3453 
     86 H86       -72.2537   28.6117  -73.0656 H         1 UNK         0.2984 
     87 H87       -71.9761   29.4505  -76.4829 H         1 UNK         0.0554 
     88 H88       -69.9544   28.0053  -76.4502 H         1 UNK         0.0847 
     89 H89       -69.7818   28.2547  -74.7128 H         1 UNK         0.0847 
     90 H90       -69.6004   29.6062  -75.8183 H         1 UNK         0.0847 
     91 H91       -73.1633   27.6661  -76.1816 H         1 UNK         0.3141 
     92 H92       -72.9583   24.7602  -74.1312 H         1 UNK         0.0743 
     93 H93       -74.7248   26.1796  -73.1243 H         1 UNK         0.0784 
     94 H94       -75.2217   26.7459  -74.7103 H         1 UNK         0.0784 
     95 H95       -75.4320   25.0502  -74.2724 H         1 UNK         0.0784 
     96 H96       -74.3736   25.2031  -76.5414 H         1 UNK         0.3213 
     97 H97       -71.8004   24.1256  -78.7927 H         1 UNK         0.0855 
     98 H98       -74.4298   22.9050  -77.7903 H         1 UNK         0.0814 
     99 H99       -72.8776   22.0930  -77.9012 H         1 UNK         0.0814 
    100 H100      -73.6996   22.6028  -79.3668 H         1 UNK         0.0814 
    101 H101      -74.5529   25.1986  -78.8375 H         1 UNK         0.3105 
    102 H102      -73.5630   28.3834  -79.9701 H         1 UNK         0.0547 
    103 H103      -74.7651   26.1735  -81.7260 H         1 UNK         0.0837 
    104 H104      -74.9183   27.9107  -81.9952 H         1 UNK         0.0837 
    105 H105      -73.3492   27.1360  -82.1228 H         1 UNK         0.0837 
    106 H106      -76.1181   27.0964  -79.8509 H         1 UNK         0.3020 
    107 H107      -76.6971   27.5267  -76.4091 H         1 UNK         0.1245 
    108 H108      -78.7861   28.6999  -77.8232 H         1 UNK         0.0781 
    109 H109      -77.4430   29.5364  -78.5336 H         1 UNK         0.0781 
    110 H110      -79.8465   29.3177  -75.4495 H         1 UNK         0.0836 
    111 H111      -78.6645   28.0626  -75.1699 H         1 UNK         0.0836 
    112 H112      -78.4837   26.6161  -78.3310 H         1 UNK         0.3022 
    113 H113      -79.0839   24.5273  -78.3432 H         1 UNK         0.0747 
    114 H114      -77.3972   23.8771  -80.0840 H         1 UNK         0.0793 
    115 H115      -78.2851   22.4805  -79.4992 H         1 UNK         0.0793 
    116 H116      -76.6364   22.7723  -78.9481 H         1 UNK         0.0793 
    117 H117      -77.9925   22.2997  -76.9346 H         1 UNK         0.3047 
    118 H118      -79.1503   21.6071  -75.0485 H         1 UNK         0.0822 
    119 H119      -76.8325   22.2980  -74.4942 H         1 UNK         0.0807 
    120 H120      -77.6814   21.8606  -73.0197 H         1 UNK         0.0807 
    121 H121      -77.4227   23.5563  -73.4236 H         1 UNK         0.0807 
    122 H122      -79.8490   23.3692  -72.8265 H         1 UNK         0.2946 
    123 H123      -83.3008   23.3836  -73.4176 H         1 UNK         0.1144 
    124 H124      -83.2375   20.9958  -72.7015 H         1 UNK         0.0793 
    125 H125      -83.6446   22.0388  -71.3497 H         1 UNK         0.0793 
    126 H126      -82.0187   21.3680  -71.4904 H         1 UNK         0.0793 
    127 H127      -81.5437   23.7478  -71.0989 H         1 UNK         0.2896 
@<TRIPOS>BOND
     1    1    2 1    
     2    1   67 1    
     3    1   68 1    
     4    1   69 1    
     5    2    3 2    
     6    2    4 am   BACKBONE|DICT|INTERRES
     7    4    5 1    
     8    4   70 1    
     9    5    6 1    
    10    5   65 1    
    11    5   71 1    
    12    6    7 1    
    13    6   72 1    
    14    6   73 1    
    15    7    8 1    
    16    8    9 1    
    17    8   74 1    
    18    8   75 1    
    19    9   10 ar   
    20    9   14 ar   
    21   10   11 ar   
    22   10   76 1    
    23   11   12 ar   
    24   11   48 1    
    25   12   13 ar   
    26   12   77 1    
    27   13   14 ar   
    28   13   15 1    
    29   14   78 1    
    30   15   16 1    
    31   15   79 1    
    32   15   80 1    
    33   16   17 1    
    34   17   18 1    
    35   17   81 1    
    36   17   82 1    
    37   18   19 1    
    38   18   22 1    
    39   18   83 1    
    40   19   20 am   BACKBONE|DICT|INTERRES
    41   19   21 2    
    42   20   84 1    
    43   20   85 1    
    44   22   23 am   BACKBONE|DICT|INTERRES
    45   22   86 1    
    46   23   24 2    
    47   23   25 1    
    48   25   26 1    
    49   25   27 1    
    50   25   87 1    
    51   26   88 1    
    52   26   89 1    
    53   26   90 1    
    54   27   28 am   BACKBONE|DICT|INTERRES
    55   27   91 1    
    56   28   29 2    
    57   28   30 1    
    58   30   31 1    
    59   30   32 1    
    60   30   92 1    
    61   31   93 1    
    62   31   94 1    
    63   31   95 1    
    64   32   33 am   BACKBONE|DICT|INTERRES
    65   32   96 1    
    66   33   34 2    
    67   33   35 1    
    68   35   36 1    
    69   35   37 1    
    70   35   97 1    
    71   36   98 1    
    72   36   99 1    
    73   36  100 1    
    74   37   38 am   BACKBONE|DICT|INTERRES
    75   37  101 1    
    76   38   39 2    
    77   38   40 1    
    78   40   41 1    
    79   40   42 1    
    80   40  102 1    
    81   41  103 1    
    82   41  104 1    
    83   41  105 1    
    84   42   43 am   BACKBONE|DICT|INTERRES
    85   42  106 1    
    86   43   44 2    
    87   43   45 1    
    88   45   46 1    
    89   45   49 1    
    90   45  107 1    
    91   46   47 1    
    92   46  108 1    
    93   46  109 1    
    94   47   48 1    
    95   48  110 1    
    96   48  111 1    
    97   49   50 am   BACKBONE|DICT|INTERRES
    98   49  112 1    
    99   50   51 2    
   100   50   52 1    
   101   52   53 1    
   102   52   54 1    
   103   52  113 1    
   104   53  114 1    
   105   53  115 1    
   106   53  116 1    
   107   54   55 am   BACKBONE|DICT|INTERRES
   108   54  117 1    
   109   55   56 2    
   110   55   57 1    
   111   57   58 1    
   112   57   59 1    
   113   57  118 1    
   114   58  119 1    
   115   58  120 1    
   116   58  121 1    
   117   59   60 am   BACKBONE|DICT|INTERRES
   118   59  122 1    
   119   60   61 2    
   120   60   62 1    
   121   62   63 1    
   122   62   64 1    
   123   62  123 1    
   124   63  124 1    
   125   63  125 1    
   126   63  126 1    
   127   64   65 am   BACKBONE|DICT|INTERRES
   128   64  127 1    
   129   65   66 2    
@<TRIPOS>SUBSTRUCTURE
     1 UNK         1 GROUP             0       ****    0 ROOT    
