@<TRIPOS>MOLECULE
3R135
127   129    1
SMALL
USER_CHARGES


@<TRIPOS>ATOM
      1 CA        -78.4058   29.7976  -77.1349 C.3       0 UNK        -0.1998 
      2 C         -78.7432   28.7702  -76.0651 C.2       0 UNK         0.4909 
      3 O         -78.0426   27.7669  -75.9450 O.2       0 UNK        -0.5240 
      4 N         -79.8026   29.0207  -75.2846 N.am      1 UNK        -0.4739 
      5 CA        -80.2697   28.1452  -74.2039 C.3       1 UNK         0.0864 
      6 C6        -81.2821   28.8535  -73.2618 C.3       11 UNK        -0.0881 
      7 S7        -80.7473   30.4895  -72.6506 S.3       11 UNK        -0.2682 
      8 C8        -79.9358   30.0728  -71.0734 C.3       11 UNK         0.0289 
      9 C9        -78.5651   29.4570  -71.3046 C.ar      11 UNK        -0.0687 
     10 C10       -78.3292   28.1098  -71.0157 C.ar      11 UNK        -0.0823 
     11 C11       -77.0817   27.5369  -71.2845 C.ar      11 UNK        -0.0830 
     12 C12       -76.0639   28.3251  -71.8300 C.ar      11 UNK        -0.1021 
     13 C13       -76.2821   29.6795  -72.0972 C.ar      11 UNK        -0.0753 
     14 C14       -77.5329   30.2395  -71.8293 C.ar      11 UNK        -0.0933 
     15 C15       -75.1903   30.5319  -72.7224 C.3       11 UNK         0.0166 
     16 S16       -74.2556   31.4940  -71.4927 S.3       11 UNK        -0.2615 
     17 C17       -73.1494   30.2365  -70.7659 C.3       11 UNK        -0.0865 
     18 CA        -71.7178   30.2767  -71.3616 C.3       10 UNK         0.0862 
     19 C         -70.7788   29.3277  -70.5664 C.2       10 UNK         0.5551 
     20 N         -70.0831   29.8420  -69.5619 N.am      10 UNK        -0.7319 
     21 O         -70.7144   28.1269  -70.8233 O.2       10 UNK        -0.5018 
     22 N         -71.7278   29.9832  -72.8029 N.am      10 UNK        -0.4509 
     23 C         -70.6744   30.0734  -73.6248 C.2       10 UNK         0.4899 
     24 O         -69.5663   30.4879  -73.2833 O.2       10 UNK        -0.4839 
     25 CA        -70.8913   29.6275  -75.0814 C.3       9 UNK         0.0222 
     26 CB        -70.5004   28.1507  -75.2531 C.3       9 UNK        -0.1966 
     27 N         -72.2685   29.8151  -75.5453 N.am      9 UNK        -0.4218 
     28 C         -72.8178   30.9860  -75.8898 C.2       9 UNK         0.5020 
     29 O         -72.2081   32.0564  -75.8545 O.2       9 UNK        -0.5274 
     30 CA        -74.2868   30.9472  -76.3706 C.3       8 UNK         0.0270 
     31 CB        -74.7853   32.3172  -76.8685 C.3       8 UNK        -0.1976 
     32 N         -74.5366   29.9428  -77.4095 N.am      8 UNK        -0.4313 
     33 C         -74.6028   28.6194  -77.2173 C.2       8 UNK         0.5041 
     34 O         -74.4002   28.0740  -76.1283 O.2       8 UNK        -0.5577 
     35 CA        -74.8851   27.7718  -78.4592 C.3       7 UNK         0.0284 
     36 CB        -73.6093   27.5921  -79.3028 C.3       7 UNK        -0.1958 
     37 N         -75.3875   26.4670  -78.0441 N.am      7 UNK        -0.4454 
     38 C         -76.1910   25.6823  -78.7657 C.2       7 UNK         0.5089 
     39 O         -76.5999   25.9867  -79.8875 O.2       7 UNK        -0.5125 
     40 CA        -76.6215   24.3283  -78.1714 C.3       6 UNK         0.0408 
     41 CB        -75.7019   23.1964  -78.6681 C.3       6 UNK        -0.1791 
     42 N         -76.7780   24.2789  -76.7123 N.am      6 UNK        -0.4762 
     43 C         -75.8521   24.3557  -75.7437 C.2       6 UNK         0.5007 
     44 O         -74.6612   24.5965  -75.9399 O.2       6 UNK        -0.5032 
     45 CA        -76.3506   24.0665  -74.3157 C.3       5 UNK         0.0783 
     46 C46       -77.0647   25.3062  -73.7212 C.3       11 UNK        -0.0857 
     47 S47       -77.8135   24.9865  -72.0861 S.3       11 UNK        -0.2512 
     48 C48       -76.8362   26.0637  -70.9933 C.3       11 UNK         0.0225 
     49 N         -77.2068   22.8766  -74.3336 N.am      5 UNK        -0.4615 
     50 C         -76.7656   21.6121  -74.3240 C.2       4 UNK         0.5053 
     51 O         -75.5772   21.3052  -74.2277 O.2       4 UNK        -0.5105 
     52 CA        -77.8212   20.4942  -74.4269 C.3       4 UNK         0.0263 
     53 CB        -78.1811   19.9717  -73.0264 C.3       4 UNK        -0.1981 
     54 N         -79.0464   20.9218  -75.1066 N.am      4 UNK        -0.4224 
     55 C         -79.1600   21.1162  -76.4288 C.2       3 UNK         0.4895 
     56 O         -78.2745   20.8464  -77.2400 O.2       3 UNK        -0.5091 
     57 CA        -80.4752   21.7472  -76.9300 C.3       3 UNK         0.0250 
     58 CB        -81.4604   20.6548  -77.3758 C.3       3 UNK        -0.1996 
     59 N         -81.1305   22.6245  -75.9485 N.am      3 UNK        -0.4254 
     60 C         -80.5774   23.7314  -75.4332 C.2       2 UNK         0.5004 
     61 O         -79.4551   24.1303  -75.7471 O.2       2 UNK        -0.5226 
     62 CA        -81.3736   24.4518  -74.3315 C.3       2 UNK         0.0269 
     63 CB        -81.4090   23.5998  -73.0499 C.3       2 UNK        -0.1926 
     64 N         -80.8036   25.7603  -73.9975 N.am      2 UNK        -0.4687 
     65 C         -80.9080   26.8547  -74.7621 C.2       1 UNK         0.5165 
     66 O         -81.5404   26.8885  -75.8220 O.2       1 UNK        -0.5079 
     67 H67       -78.3052   29.3104  -78.1045 H         1 UNK         0.0900 
     68 H68       -77.4610   30.2844  -76.8969 H         1 UNK         0.0900 
     69 H69       -79.1739   30.5661  -77.2188 H         1 UNK         0.0900 
     70 H70       -80.3480   29.8577  -75.4297 H         1 UNK         0.2959 
     71 H71       -79.3911   27.8602  -73.6214 H         1 UNK         0.1079 
     72 H72       -82.2313   29.0086  -73.7794 H         1 UNK         0.0837 
     73 H73       -81.5141   28.2169  -72.4057 H         1 UNK         0.0837 
     74 H74       -79.8206   30.9846  -70.4857 H         1 UNK         0.0685 
     75 H75       -80.5766   29.4106  -70.4893 H         1 UNK         0.0685 
     76 H76       -79.1207   27.4980  -70.6046 H         1 UNK         0.1434 
     77 H77       -75.1047   27.8807  -72.0565 H         1 UNK         0.1329 
     78 H78       -77.7133   31.2823  -72.0529 H         1 UNK         0.1335 
     79 H79       -75.6459   31.2340  -73.4217 H         1 UNK         0.0680 
     80 H80       -74.5126   29.9096  -73.3065 H         1 UNK         0.0680 
     81 H81       -73.5842   29.2422  -70.8683 H         1 UNK         0.1032 
     82 H82       -73.1139   30.4307  -69.6920 H         1 UNK         0.1032 
     83 H83       -71.3352   31.2936  -71.2513 H         1 UNK         0.0461 
     84 H84       -70.1376   30.8238  -69.3381 H         1 UNK         0.3453 
     85 H85       -69.4809   29.2391  -69.0232 H         1 UNK         0.3453 
     86 H86       -72.5878   29.6148  -73.1747 H         1 UNK         0.2984 
     87 H87       -70.2325   30.2275  -75.7129 H         1 UNK         0.0554 
     88 H88       -70.5764   27.8382  -76.2948 H         1 UNK         0.0847 
     89 H89       -71.1350   27.4923  -74.6582 H         1 UNK         0.0847 
     90 H90       -69.4695   27.9806  -74.9390 H         1 UNK         0.0847 
     91 H91       -72.8598   28.9887  -75.6261 H         1 UNK         0.3141 
     92 H92       -74.8967   30.6764  -75.5104 H         1 UNK         0.0743 
     93 H93       -75.8392   32.2828  -77.1449 H         1 UNK         0.0784 
     94 H94       -74.6840   33.0764  -76.0916 H         1 UNK         0.0784 
     95 H95       -74.2208   32.6609  -77.7362 H         1 UNK         0.0784 
     96 H96       -74.6531   30.2981  -78.3481 H         1 UNK         0.3213 
     97 H97       -75.6500   28.2808  -79.0500 H         1 UNK         0.0855 
     98 H98       -72.8256   27.0831  -78.7399 H         1 UNK         0.0814 
     99 H99       -73.2081   28.5536  -79.6254 H         1 UNK         0.0814 
    100 H100      -73.8066   27.0086  -80.2023 H         1 UNK         0.0814 
    101 H101      -75.1015   26.1659  -77.1157 H         1 UNK         0.3105 
    102 H102      -77.6198   24.1282  -78.5639 H         1 UNK         0.0547 
    103 H103      -75.6808   23.1626  -79.7580 H         1 UNK         0.0837 
    104 H104      -74.6740   23.3280  -78.3292 H         1 UNK         0.0837 
    105 H105      -76.0487   22.2231  -78.3206 H         1 UNK         0.0837 
    106 H106      -77.7426   24.1641  -76.4021 H         1 UNK         0.3020 
    107 H107      -75.4747   23.8557  -73.6975 H         1 UNK         0.1245 
    108 H108      -77.8635   25.6470  -74.3796 H         1 UNK         0.0781 
    109 H109      -76.3662   26.1417  -73.6557 H         1 UNK         0.0781 
    110 H110      -75.7789   25.8119  -71.0907 H         1 UNK         0.0836 
    111 H111      -77.1060   25.8543  -69.9573 H         1 UNK         0.0836 
    112 H112      -78.1912   23.0560  -74.4790 H         1 UNK         0.3022 
    113 H113      -77.3788   19.6734  -74.9958 H         1 UNK         0.0747 
    114 H114      -78.8790   19.1359  -73.0811 H         1 UNK         0.0793 
    115 H115      -77.2923   19.6156  -72.5034 H         1 UNK         0.0793 
    116 H116      -78.6328   20.7489  -72.4082 H         1 UNK         0.0793 
    117 H117      -79.8380   21.1448  -74.5219 H         1 UNK         0.3047 
    118 H118      -80.2255   22.3586  -77.8001 H         1 UNK         0.0822 
    119 H119      -82.3555   21.0857  -77.8248 H         1 UNK         0.0807 
    120 H120      -81.7713   20.0248  -76.5414 H         1 UNK         0.0807 
    121 H121      -81.0074   20.0031  -78.1246 H         1 UNK         0.0807 
    122 H122      -82.0528   22.3488  -75.6416 H         1 UNK         0.2946 
    123 H123      -82.3948   24.5987  -74.6914 H         1 UNK         0.1144 
    124 H124      -81.9625   24.1022  -72.2562 H         1 UNK         0.0793 
    125 H125      -80.4065   23.3898  -72.6747 H         1 UNK         0.0793 
    126 H126      -81.9007   22.6415  -73.2205 H         1 UNK         0.0793 
    127 H127      -80.2394   25.7986  -73.1606 H         1 UNK         0.2896 
@<TRIPOS>BOND
     1    1    2 1    
     2    1   67 1    
     3    1   68 1    
     4    1   69 1    
     5    2    3 2    
     6    2    4 am   BACKBONE|DICT|INTERRES
     7    4    5 1    
     8    4   70 1    
     9    5    6 1    
    10    5   65 1    
    11    5   71 1    
    12    6    7 1    
    13    6   72 1    
    14    6   73 1    
    15    7    8 1    
    16    8    9 1    
    17    8   74 1    
    18    8   75 1    
    19    9   10 ar   
    20    9   14 ar   
    21   10   11 ar   
    22   10   76 1    
    23   11   12 ar   
    24   11   48 1    
    25   12   13 ar   
    26   12   77 1    
    27   13   14 ar   
    28   13   15 1    
    29   14   78 1    
    30   15   16 1    
    31   15   79 1    
    32   15   80 1    
    33   16   17 1    
    34   17   18 1    
    35   17   81 1    
    36   17   82 1    
    37   18   19 1    
    38   18   22 1    
    39   18   83 1    
    40   19   20 am   BACKBONE|DICT|INTERRES
    41   19   21 2    
    42   20   84 1    
    43   20   85 1    
    44   22   23 am   BACKBONE|DICT|INTERRES
    45   22   86 1    
    46   23   24 2    
    47   23   25 1    
    48   25   26 1    
    49   25   27 1    
    50   25   87 1    
    51   26   88 1    
    52   26   89 1    
    53   26   90 1    
    54   27   28 am   BACKBONE|DICT|INTERRES
    55   27   91 1    
    56   28   29 2    
    57   28   30 1    
    58   30   31 1    
    59   30   32 1    
    60   30   92 1    
    61   31   93 1    
    62   31   94 1    
    63   31   95 1    
    64   32   33 am   BACKBONE|DICT|INTERRES
    65   32   96 1    
    66   33   34 2    
    67   33   35 1    
    68   35   36 1    
    69   35   37 1    
    70   35   97 1    
    71   36   98 1    
    72   36   99 1    
    73   36  100 1    
    74   37   38 am   BACKBONE|DICT|INTERRES
    75   37  101 1    
    76   38   39 2    
    77   38   40 1    
    78   40   41 1    
    79   40   42 1    
    80   40  102 1    
    81   41  103 1    
    82   41  104 1    
    83   41  105 1    
    84   42   43 am   BACKBONE|DICT|INTERRES
    85   42  106 1    
    86   43   44 2    
    87   43   45 1    
    88   45   46 1    
    89   45   49 1    
    90   45  107 1    
    91   46   47 1    
    92   46  108 1    
    93   46  109 1    
    94   47   48 1    
    95   48  110 1    
    96   48  111 1    
    97   49   50 am   BACKBONE|DICT|INTERRES
    98   49  112 1    
    99   50   51 2    
   100   50   52 1    
   101   52   53 1    
   102   52   54 1    
   103   52  113 1    
   104   53  114 1    
   105   53  115 1    
   106   53  116 1    
   107   54   55 am   BACKBONE|DICT|INTERRES
   108   54  117 1    
   109   55   56 2    
   110   55   57 1    
   111   57   58 1    
   112   57   59 1    
   113   57  118 1    
   114   58  119 1    
   115   58  120 1    
   116   58  121 1    
   117   59   60 am   BACKBONE|DICT|INTERRES
   118   59  122 1    
   119   60   61 2    
   120   60   62 1    
   121   62   63 1    
   122   62   64 1    
   123   62  123 1    
   124   63  124 1    
   125   63  125 1    
   126   63  126 1    
   127   64   65 am   BACKBONE|DICT|INTERRES
   128   64  127 1    
   129   65   66 2    
@<TRIPOS>SUBSTRUCTURE
     1 UNK         1 GROUP             0       ****    0 ROOT    
