@<TRIPOS>MOLECULE
3R135
127   129    1
SMALL
USER_CHARGES


@<TRIPOS>ATOM
      1 CA        -83.4256   27.1492  -71.8278 C.3       0 UNK        -0.1998 
      2 C         -83.5498   27.6089  -73.2726 C.2       0 UNK         0.4909 
      3 O         -84.5692   27.3529  -73.9136 O.2       0 UNK        -0.5240 
      4 N         -82.5165   28.2858  -73.7893 N.am      1 UNK        -0.4739 
      5 CA        -82.4280   28.7669  -75.1748 C.3       1 UNK         0.0864 
      6 C6        -81.4435   29.9594  -75.3105 C.3       11 UNK        -0.0881 
      7 S7        -79.7609   29.6156  -74.6880 S.3       11 UNK        -0.2682 
      8 C8        -79.8360   30.3577  -73.0288 C.3       11 UNK         0.0289 
      9 C9        -78.7392   29.8091  -72.1300 C.ar      11 UNK        -0.0687 
     10 C10       -78.7898   28.4808  -71.6958 C.ar      11 UNK        -0.0823 
     11 C11       -77.7997   27.9693  -70.8529 C.ar      11 UNK        -0.0830 
     12 C12       -76.7584   28.8020  -70.4313 C.ar      11 UNK        -0.1021 
     13 C13       -76.6948   30.1312  -70.8618 C.ar      11 UNK        -0.0753 
     14 C14       -77.6862   30.6285  -71.7134 C.ar      11 UNK        -0.0933 
     15 C15       -75.5682   31.0407  -70.3939 C.3       11 UNK         0.0166 
     16 S16       -74.2345   31.1554  -71.6255 S.3       11 UNK        -0.2615 
     17 C17       -73.4412   29.5248  -71.4323 C.3       11 UNK        -0.0865 
     18 CA        -72.2012   29.3651  -72.3462 C.3       10 UNK         0.0862 
     19 C         -71.4402   28.0591  -72.0127 C.2       10 UNK         0.5551 
     20 N         -70.2264   28.1597  -71.4897 N.am      10 UNK        -0.7319 
     21 O         -71.9573   26.9578  -72.1872 O.2       10 UNK        -0.5018 
     22 N         -72.5891   29.3387  -73.7579 N.am      10 UNK        -0.4509 
     23 C         -72.0796   30.1025  -74.7279 C.2       10 UNK         0.4899 
     24 O         -71.2532   30.9984  -74.5439 O.2       10 UNK        -0.4839 
     25 CA        -72.5745   29.7770  -76.1503 C.3       9 UNK         0.0222 
     26 CB        -71.9506   30.6775  -77.2375 C.3       9 UNK        -0.1966 
     27 N         -72.3960   28.3566  -76.4749 N.am      9 UNK        -0.4218 
     28 C         -71.2463   27.6626  -76.5020 C.2       9 UNK         0.5020 
     29 O         -70.1342   28.1650  -76.3330 O.2       9 UNK        -0.5274 
     30 CA        -71.3343   26.1421  -76.7342 C.3       8 UNK         0.0270 
     31 CB        -70.9806   25.3898  -75.4402 C.3       8 UNK        -0.1976 
     32 N         -72.6466   25.6891  -77.2027 N.am      8 UNK        -0.4313 
     33 C         -73.1104   25.8415  -78.4500 C.2       8 UNK         0.5041 
     34 O         -72.4565   26.3375  -79.3683 O.2       8 UNK        -0.5577 
     35 CA        -74.5607   25.3957  -78.7085 C.3       7 UNK         0.0284 
     36 CB        -74.6339   23.8781  -78.9393 C.3       7 UNK        -0.1958 
     37 N         -75.4824   25.7761  -77.6331 N.am      7 UNK        -0.4454 
     38 C         -75.7617   27.0389  -77.2751 C.2       7 UNK         0.5089 
     39 O         -75.2696   28.0322  -77.8090 O.2       7 UNK        -0.5125 
     40 CA        -76.7265   27.2207  -76.0955 C.3       6 UNK         0.0408 
     41 CB        -78.1760   27.0086  -76.5501 C.3       6 UNK        -0.1791 
     42 N         -76.4025   26.3064  -75.0000 N.am      6 UNK        -0.4762 
     43 C         -75.3322   26.4501  -74.2041 C.2       6 UNK         0.5007 
     44 O         -74.5611   27.4069  -74.2753 O.2       6 UNK        -0.5032 
     45 CA        -75.0270   25.3116  -73.2082 C.3       5 UNK         0.0783 
     46 C46       -75.6229   25.5691  -71.8030 C.3       11 UNK        -0.0857 
     47 S47       -77.4344   25.3511  -71.7080 S.3       11 UNK        -0.2512 
     48 C48       -77.8744   26.5227  -70.3852 C.3       11 UNK         0.0225 
     49 N         -75.3851   23.9898  -73.7329 N.am      5 UNK        -0.4615 
     50 C         -74.7686   23.4015  -74.7646 C.2       4 UNK         0.5053 
     51 O         -73.8300   23.9077  -75.3757 O.2       4 UNK        -0.5105 
     52 CA        -75.3016   22.0345  -75.2172 C.3       4 UNK         0.0263 
     53 CB        -74.6648   20.9097  -74.3858 C.3       4 UNK        -0.1981 
     54 N         -76.7613   21.9064  -75.1789 N.am      4 UNK        -0.4224 
     55 C         -77.6332   22.6865  -75.8337 C.2       3 UNK         0.4895 
     56 O         -77.3043   23.6812  -76.4862 O.2       3 UNK        -0.5091 
     57 CA        -79.1046   22.2288  -75.7971 C.3       3 UNK         0.0250 
     58 CB        -79.5433   21.6815  -74.4179 C.3       3 UNK        -0.1996 
     59 N         -80.0363   23.2487  -76.2958 N.am      3 UNK        -0.4254 
     60 C         -80.4137   24.3820  -75.6879 C.2       2 UNK         0.5004 
     61 O         -80.0375   24.7340  -74.5665 O.2       2 UNK        -0.5226 
     62 CA        -81.4007   25.2635  -76.4696 C.3       2 UNK         0.0269 
     63 CB        -82.7277   24.5252  -76.7441 C.3       2 UNK        -0.1926 
     64 N         -81.6685   26.4777  -75.7040 N.am      2 UNK        -0.4687 
     65 C         -82.1347   27.6354  -76.1885 C.2       1 UNK         0.5165 
     66 O         -82.3585   27.8265  -77.3851 O.2       1 UNK        -0.5079 
     67 H67       -82.4811   27.4580  -71.3800 H         1 UNK         0.0900 
     68 H68       -84.2359   27.5664  -71.2305 H         1 UNK         0.0900 
     69 H69       -83.4869   26.0625  -71.7741 H         1 UNK         0.0900 
     70 H70       -81.6983   28.4590  -73.2249 H         1 UNK         0.2959 
     71 H71       -83.4158   29.1452  -75.4489 H         1 UNK         0.1079 
     72 H72       -81.8460   30.8254  -74.7826 H         1 UNK         0.0837 
     73 H73       -81.3655   30.2731  -76.3533 H         1 UNK         0.0837 
     74 H74       -80.8030   30.1571  -72.5668 H         1 UNK         0.0685 
     75 H75       -79.7601   31.4422  -73.1221 H         1 UNK         0.0685 
     76 H76       -79.5958   27.8380  -72.0216 H         1 UNK         0.1434 
     77 H77       -75.9953   28.4163  -69.7693 H         1 UNK         0.1329 
     78 H78       -77.6384   31.6566  -72.0455 H         1 UNK         0.1335 
     79 H79       -75.9616   32.0416  -70.2101 H         1 UNK         0.0680 
     80 H80       -75.1619   30.6960  -69.4416 H         1 UNK         0.0680 
     81 H81       -74.1736   28.7456  -71.6501 H         1 UNK         0.1032 
     82 H82       -73.1619   29.4059  -70.3836 H         1 UNK         0.1032 
     83 H83       -71.5348   30.2094  -72.1575 H         1 UNK         0.0461 
     84 H84       -69.7972   29.0591  -71.3361 H         1 UNK         0.3453 
     85 H85       -69.7247   27.3181  -71.2534 H         1 UNK         0.3453 
     86 H86       -73.2528   28.6051  -74.0050 H         1 UNK         0.2984 
     87 H87       -73.6508   29.9564  -76.1519 H         1 UNK         0.0554 
     88 H88       -72.1721   31.7280  -77.0459 H         1 UNK         0.0847 
     89 H89       -72.3464   30.4373  -78.2243 H         1 UNK         0.0847 
     90 H90       -70.8656   30.5775  -77.2776 H         1 UNK         0.0847 
     91 H91       -73.2537   27.8439  -76.6338 H         1 UNK         0.3141 
     92 H92       -70.5912   25.8850  -77.4919 H         1 UNK         0.0743 
     93 H93       -69.9903   25.6704  -75.0790 H         1 UNK         0.0784 
     94 H94       -71.6918   25.6093  -74.6426 H         1 UNK         0.0784 
     95 H95       -70.9752   24.3109  -75.5962 H         1 UNK         0.0784 
     96 H96       -73.2203   25.1876  -76.5248 H         1 UNK         0.3213 
     97 H97       -74.9004   25.8939  -79.6190 H         1 UNK         0.0855 
     98 H98       -74.2883   23.3202  -78.0693 H         1 UNK         0.0814 
     99 H99       -74.0093   23.5829  -79.7834 H         1 UNK         0.0814 
    100 H100      -75.6522   23.5574  -79.1603 H         1 UNK         0.0814 
    101 H101      -75.9644   25.0239  -77.1485 H         1 UNK         0.3105 
    102 H102      -76.6358   28.2444  -75.7250 H         1 UNK         0.0547 
    103 H103      -78.3115   26.0541  -77.0577 H         1 UNK         0.0837 
    104 H104      -78.4845   27.7922  -77.2430 H         1 UNK         0.0837 
    105 H105      -78.8583   27.0367  -75.7022 H         1 UNK         0.0837 
    106 H106      -76.9725   25.4755  -74.9096 H         1 UNK         0.3020 
    107 H107      -73.9402   25.3157  -73.0911 H         1 UNK         0.1245 
    108 H108      -75.3473   26.5664  -71.4588 H         1 UNK         0.0781 
    109 H109      -75.1710   24.8805  -71.0876 H         1 UNK         0.0781 
    110 H110      -77.2286   26.3559  -69.5216 H         1 UNK         0.0836 
    111 H111      -78.8899   26.3069  -70.0500 H         1 UNK         0.0836 
    112 H112      -76.1680   23.5281  -73.2932 H         1 UNK         0.3022 
    113 H113      -74.9967   21.8972  -76.2562 H         1 UNK         0.0747 
    114 H114      -74.9393   19.9269  -74.7695 H         1 UNK         0.0793 
    115 H115      -73.5758   20.9724  -74.4142 H         1 UNK         0.0793 
    116 H116      -74.9666   20.9591  -73.3388 H         1 UNK         0.0793 
    117 H117      -77.1249   21.1121  -74.6726 H         1 UNK         0.3047 
    118 H118      -79.1738   21.4051  -76.5093 H         1 UNK         0.0822 
    119 H119      -80.6123   21.4687  -74.3996 H         1 UNK         0.0807 
    120 H120      -79.3322   22.3869  -73.6130 H         1 UNK         0.0807 
    121 H121      -79.0343   20.7483  -74.1759 H         1 UNK         0.0807 
    122 H122      -80.3830   23.0805  -77.2298 H         1 UNK         0.2946 
    123 H123      -80.9283   25.5374  -77.4157 H         1 UNK         0.1144 
    124 H124      -83.4279   25.1543  -77.2939 H         1 UNK         0.0793 
    125 H125      -83.2139   24.2201  -75.8165 H         1 UNK         0.0793 
    126 H126      -82.5726   23.6277  -77.3435 H         1 UNK         0.0793 
    127 H127      -81.4383   26.4077  -74.7207 H         1 UNK         0.2896 
@<TRIPOS>BOND
     1    1    2 1    
     2    1   67 1    
     3    1   68 1    
     4    1   69 1    
     5    2    3 2    
     6    2    4 am   BACKBONE|DICT|INTERRES
     7    4    5 1    
     8    4   70 1    
     9    5    6 1    
    10    5   65 1    
    11    5   71 1    
    12    6    7 1    
    13    6   72 1    
    14    6   73 1    
    15    7    8 1    
    16    8    9 1    
    17    8   74 1    
    18    8   75 1    
    19    9   10 ar   
    20    9   14 ar   
    21   10   11 ar   
    22   10   76 1    
    23   11   12 ar   
    24   11   48 1    
    25   12   13 ar   
    26   12   77 1    
    27   13   14 ar   
    28   13   15 1    
    29   14   78 1    
    30   15   16 1    
    31   15   79 1    
    32   15   80 1    
    33   16   17 1    
    34   17   18 1    
    35   17   81 1    
    36   17   82 1    
    37   18   19 1    
    38   18   22 1    
    39   18   83 1    
    40   19   20 am   BACKBONE|DICT|INTERRES
    41   19   21 2    
    42   20   84 1    
    43   20   85 1    
    44   22   23 am   BACKBONE|DICT|INTERRES
    45   22   86 1    
    46   23   24 2    
    47   23   25 1    
    48   25   26 1    
    49   25   27 1    
    50   25   87 1    
    51   26   88 1    
    52   26   89 1    
    53   26   90 1    
    54   27   28 am   BACKBONE|DICT|INTERRES
    55   27   91 1    
    56   28   29 2    
    57   28   30 1    
    58   30   31 1    
    59   30   32 1    
    60   30   92 1    
    61   31   93 1    
    62   31   94 1    
    63   31   95 1    
    64   32   33 am   BACKBONE|DICT|INTERRES
    65   32   96 1    
    66   33   34 2    
    67   33   35 1    
    68   35   36 1    
    69   35   37 1    
    70   35   97 1    
    71   36   98 1    
    72   36   99 1    
    73   36  100 1    
    74   37   38 am   BACKBONE|DICT|INTERRES
    75   37  101 1    
    76   38   39 2    
    77   38   40 1    
    78   40   41 1    
    79   40   42 1    
    80   40  102 1    
    81   41  103 1    
    82   41  104 1    
    83   41  105 1    
    84   42   43 am   BACKBONE|DICT|INTERRES
    85   42  106 1    
    86   43   44 2    
    87   43   45 1    
    88   45   46 1    
    89   45   49 1    
    90   45  107 1    
    91   46   47 1    
    92   46  108 1    
    93   46  109 1    
    94   47   48 1    
    95   48  110 1    
    96   48  111 1    
    97   49   50 am   BACKBONE|DICT|INTERRES
    98   49  112 1    
    99   50   51 2    
   100   50   52 1    
   101   52   53 1    
   102   52   54 1    
   103   52  113 1    
   104   53  114 1    
   105   53  115 1    
   106   53  116 1    
   107   54   55 am   BACKBONE|DICT|INTERRES
   108   54  117 1    
   109   55   56 2    
   110   55   57 1    
   111   57   58 1    
   112   57   59 1    
   113   57  118 1    
   114   58  119 1    
   115   58  120 1    
   116   58  121 1    
   117   59   60 am   BACKBONE|DICT|INTERRES
   118   59  122 1    
   119   60   61 2    
   120   60   62 1    
   121   62   63 1    
   122   62   64 1    
   123   62  123 1    
   124   63  124 1    
   125   63  125 1    
   126   63  126 1    
   127   64   65 am   BACKBONE|DICT|INTERRES
   128   64  127 1    
   129   65   66 2    
@<TRIPOS>SUBSTRUCTURE
     1 UNK         1 GROUP             0       ****    0 ROOT    
