@<TRIPOS>MOLECULE
3R135
127   129    1
SMALL
USER_CHARGES


@<TRIPOS>ATOM
      1 CA        -75.8527   21.0256  -72.9687 C.3       0 UNK        -0.1998 
      2 C         -77.1171   21.5104  -72.2753 C.2       0 UNK         0.4909 
      3 O         -77.9588   20.6958  -71.8937 O.2       0 UNK        -0.5240 
      4 N         -77.2450   22.8314  -72.0945 N.am      1 UNK        -0.4739 
      5 CA        -78.4117   23.4843  -71.4928 C.3       1 UNK         0.0864 
      6 C6        -78.0198   24.8317  -70.8295 C.3       11 UNK        -0.0881 
      7 S7        -77.5909   26.1881  -71.9816 S.3       11 UNK        -0.2682 
      8 C8        -78.9065   27.3833  -71.5787 C.3       11 UNK         0.0289 
      9 C9        -78.5823   28.7691  -72.1089 C.ar      11 UNK        -0.0687 
     10 C10       -79.0247   29.1695  -73.3726 C.ar      11 UNK        -0.0823 
     11 C11       -78.6912   30.4342  -73.8692 C.ar      11 UNK        -0.0830 
     12 C12       -77.9525   31.3161  -73.0744 C.ar      11 UNK        -0.1021 
     13 C13       -77.5310   30.9347  -71.7981 C.ar      11 UNK        -0.0753 
     14 C14       -77.8409   29.6571  -71.3248 C.ar      11 UNK        -0.0933 
     15 C15       -76.7524   31.8998  -70.9190 C.3       11 UNK         0.0166 
     16 S16       -74.9671   31.5598  -70.9663 S.3       11 UNK        -0.2615 
     17 C17       -74.4716   32.3197  -72.5544 C.3       11 UNK        -0.0865 
     18 CA        -74.1906   31.2961  -73.6888 C.3       10 UNK         0.0862 
     19 C         -73.7265   32.0484  -74.9679 C.2       10 UNK         0.5551 
     20 N         -74.5353   32.0515  -76.0193 N.am      10 UNK        -0.7319 
     21 O         -72.6693   32.6756  -74.9870 O.2       10 UNK        -0.5018 
     22 N         -73.3073   30.2181  -73.2068 N.am      10 UNK        -0.4509 
     23 C         -72.4742   29.4106  -73.8782 C.2       10 UNK         0.4899 
     24 O         -72.1570   29.5365  -75.0585 O.2       10 UNK        -0.4839 
     25 CA        -71.9238   28.2021  -73.1097 C.3       9 UNK         0.0222 
     26 CB        -72.1753   28.2405  -71.5831 C.3       9 UNK        -0.1966 
     27 N         -72.5422   27.0218  -73.7052 N.am      9 UNK        -0.4218 
     28 C         -72.1329   25.7562  -73.5722 C.2       9 UNK         0.5020 
     29 O         -71.1383   25.4162  -72.9300 O.2       9 UNK        -0.5274 
     30 CA        -72.9805   24.6855  -74.2725 C.3       8 UNK         0.0270 
     31 CB        -74.3272   24.5014  -73.5527 C.3       8 UNK        -0.1976 
     32 N         -73.2266   25.0333  -75.6729 N.am      8 UNK        -0.4313 
     33 C         -72.6248   24.4570  -76.7226 C.2       8 UNK         0.5041 
     34 O         -71.7854   23.5610  -76.6215 O.2       8 UNK        -0.5577 
     35 CA        -73.0291   24.9315  -78.1317 C.3       7 UNK         0.0284 
     36 CB        -73.9576   23.9029  -78.7984 C.3       7 UNK        -0.1958 
     37 N         -73.6785   26.2448  -78.1350 N.am      7 UNK        -0.4454 
     38 C         -73.0164   27.4071  -78.0336 C.2       7 UNK         0.5089 
     39 O         -71.7880   27.4873  -78.0110 O.2       7 UNK        -0.5125 
     40 CA        -73.8522   28.6995  -77.9374 C.3       6 UNK         0.0408 
     41 CB        -73.9523   29.3708  -79.3160 C.3       6 UNK        -0.1791 
     42 N         -75.2033   28.5271  -77.3958 N.am      6 UNK        -0.4762 
     43 C         -75.5340   27.9720  -76.2207 C.2       6 UNK         0.5007 
     44 O         -74.7169   27.5083  -75.4240 O.2       6 UNK        -0.5032 
     45 CA        -77.0377   27.8350  -75.9022 C.3       5 UNK         0.0783 
     46 C46       -77.9856   28.7202  -76.7602 C.3       11 UNK        -0.0857 
     47 S47       -77.7880   30.5130  -76.4742 S.3       11 UNK        -0.2512 
     48 C48       -79.1114   30.8505  -75.2692 C.3       11 UNK         0.0225 
     49 N         -77.4678   26.4322  -75.9342 N.am      5 UNK        -0.4615 
     50 C         -77.2783   25.5588  -76.9357 C.2       4 UNK         0.5053 
     51 O         -76.6127   25.7890  -77.9463 O.2       4 UNK        -0.5105 
     52 CA        -77.9791   24.1991  -76.7979 C.3       4 UNK         0.0263 
     53 CB        -77.2029   23.2896  -75.8344 C.3       4 UNK        -0.1981 
     54 N         -79.3826   24.3144  -76.3767 N.am      4 UNK        -0.4224 
     55 C         -80.3367   24.9189  -77.1077 C.2       3 UNK         0.4895 
     56 O         -80.1166   25.4545  -78.1950 O.2       3 UNK        -0.5091 
     57 CA        -81.7882   24.9166  -76.5901 C.3       3 UNK         0.0250 
     58 CB        -82.6866   24.0730  -77.5118 C.3       3 UNK        -0.1996 
     59 N         -81.9434   24.4301  -75.2204 N.am      3 UNK        -0.4254 
     60 C         -81.7015   25.1449  -74.1151 C.2       2 UNK         0.5004 
     61 O         -81.2902   26.3055  -74.1275 O.2       2 UNK        -0.5226 
     62 CA        -81.9458   24.4426  -72.7619 C.3       2 UNK         0.0269 
     63 CB        -82.7552   23.1292  -72.8690 C.3       2 UNK        -0.1926 
     64 N         -80.7003   24.2012  -72.0226 N.am      2 UNK        -0.4687 
     65 C         -79.5939   23.5980  -72.4853 C.2       1 UNK         0.5165 
     66 O         -79.4919   23.1571  -73.6341 O.2       1 UNK        -0.5079 
     67 H67       -75.9724   21.0723  -74.0506 H         1 UNK         0.0900 
     68 H68       -75.6396   19.9925  -72.6949 H         1 UNK         0.0900 
     69 H69       -74.9898   21.6275  -72.6858 H         1 UNK         0.0900 
     70 H70       -76.5373   23.4590  -72.4450 H         1 UNK         0.2959 
     71 H71       -78.7669   22.8326  -70.6909 H         1 UNK         0.1079 
     72 H72       -77.1606   24.6749  -70.1752 H         1 UNK         0.0837 
     73 H73       -78.8163   25.1560  -70.1586 H         1 UNK         0.0837 
     74 H74       -79.8553   27.0328  -71.9855 H         1 UNK         0.0685 
     75 H75       -79.0370   27.4379  -70.4969 H         1 UNK         0.0685 
     76 H76       -79.6022   28.4841  -73.9789 H         1 UNK         0.1434 
     77 H77       -77.7016   32.2977  -73.4526 H         1 UNK         0.1329 
     78 H78       -77.5022   29.3534  -70.3436 H         1 UNK         0.1335 
     79 H79       -77.0968   31.8050  -69.8880 H         1 UNK         0.0680 
     80 H80       -76.9458   32.9346  -71.2059 H         1 UNK         0.0680 
     81 H81       -73.5762   32.9131  -72.3578 H         1 UNK         0.1032 
     82 H82       -75.2339   33.0343  -72.8698 H         1 UNK         0.1032 
     83 H83       -75.1346   30.7995  -73.9212 H         1 UNK         0.0461 
     84 H84       -75.4154   31.5593  -76.0070 H         1 UNK         0.3453 
     85 H85       -74.2555   32.5549  -76.8459 H         1 UNK         0.3453 
     86 H86       -73.4515   30.0021  -72.2312 H         1 UNK         0.2984 
     87 H87       -70.8475   28.1663  -73.2892 H         1 UNK         0.0554 
     88 H88       -71.6821   27.4073  -71.0825 H         1 UNK         0.0847 
     89 H89       -73.2372   28.1823  -71.3396 H         1 UNK         0.0847 
     90 H90       -71.7751   29.1526  -71.1379 H         1 UNK         0.0847 
     91 H91       -73.3485   27.2181  -74.2994 H         1 UNK         0.3141 
     92 H92       -72.4386   23.7395  -74.2059 H         1 UNK         0.0743 
     93 H93       -74.9452   25.3992  -73.6002 H         1 UNK         0.0784 
     94 H94       -74.8903   23.6845  -73.9995 H         1 UNK         0.0784 
     95 H95       -74.1782   24.2609  -72.4991 H         1 UNK         0.0784 
     96 H96       -73.8538   25.8144  -75.8392 H         1 UNK         0.3213 
     97 H97       -72.1163   24.9936  -78.7285 H         1 UNK         0.0855 
     98 H98       -74.8743   23.7538  -78.2283 H         1 UNK         0.0814 
     99 H99       -73.4667   22.9323  -78.8811 H         1 UNK         0.0814 
    100 H100      -74.2355   24.2117  -79.8062 H         1 UNK         0.0814 
    101 H101      -74.6956   26.2552  -78.1507 H         1 UNK         0.3105 
    102 H102      -73.3252   29.3851  -77.2754 H         1 UNK         0.0547 
    103 H103      -74.5045   28.7540  -80.0262 H         1 UNK         0.0837 
    104 H104      -74.4486   30.3393  -79.2518 H         1 UNK         0.0837 
    105 H105      -72.9614   29.5456  -79.7377 H         1 UNK         0.0837 
    106 H106      -75.9577   28.8518  -77.9832 H         1 UNK         0.3020 
    107 H107      -77.1225   28.1458  -74.8621 H         1 UNK         0.1245 
    108 H108      -77.8631   28.5139  -77.8248 H         1 UNK         0.0781 
    109 H109      -79.0219   28.4541  -76.5458 H         1 UNK         0.0781 
    110 H110      -79.3330   31.9188  -75.2825 H         1 UNK         0.0836 
    111 H111      -80.0340   30.3492  -75.5659 H         1 UNK         0.0836 
    112 H112      -78.0056   26.1235  -75.1369 H         1 UNK         0.3022 
    113 H113      -77.9725   23.7259  -77.7821 H         1 UNK         0.0747 
    114 H114      -77.6619   22.3034  -75.7619 H         1 UNK         0.0793 
    115 H115      -76.1751   23.1469  -76.1703 H         1 UNK         0.0793 
    116 H116      -77.1631   23.7143  -74.8320 H         1 UNK         0.0793 
    117 H117      -79.6265   23.8987  -75.4816 H         1 UNK         0.3047 
    118 H118      -82.1401   25.9500  -76.6298 H         1 UNK         0.0822 
    119 H119      -83.7305   24.1196  -77.2006 H         1 UNK         0.0807 
    120 H120      -82.3842   23.0251  -77.5215 H         1 UNK         0.0807 
    121 H121      -82.6432   24.4336  -78.5405 H         1 UNK         0.0807 
    122 H122      -82.2409   23.4713  -75.1110 H         1 UNK         0.2946 
    123 H123      -82.5343   25.1440  -72.1678 H         1 UNK         0.1144 
    124 H124      -82.9969   22.7415  -71.8793 H         1 UNK         0.0793 
    125 H125      -82.2097   22.3475  -73.3991 H         1 UNK         0.0793 
    126 H126      -83.7033   23.2876  -73.3852 H         1 UNK         0.0793 
    127 H127      -80.6884   24.5556  -71.0769 H         1 UNK         0.2896 
@<TRIPOS>BOND
     1    1    2 1    
     2    1   67 1    
     3    1   68 1    
     4    1   69 1    
     5    2    3 2    
     6    2    4 am   BACKBONE|DICT|INTERRES
     7    4    5 1    
     8    4   70 1    
     9    5    6 1    
    10    5   65 1    
    11    5   71 1    
    12    6    7 1    
    13    6   72 1    
    14    6   73 1    
    15    7    8 1    
    16    8    9 1    
    17    8   74 1    
    18    8   75 1    
    19    9   10 ar   
    20    9   14 ar   
    21   10   11 ar   
    22   10   76 1    
    23   11   12 ar   
    24   11   48 1    
    25   12   13 ar   
    26   12   77 1    
    27   13   14 ar   
    28   13   15 1    
    29   14   78 1    
    30   15   16 1    
    31   15   79 1    
    32   15   80 1    
    33   16   17 1    
    34   17   18 1    
    35   17   81 1    
    36   17   82 1    
    37   18   19 1    
    38   18   22 1    
    39   18   83 1    
    40   19   20 am   BACKBONE|DICT|INTERRES
    41   19   21 2    
    42   20   84 1    
    43   20   85 1    
    44   22   23 am   BACKBONE|DICT|INTERRES
    45   22   86 1    
    46   23   24 2    
    47   23   25 1    
    48   25   26 1    
    49   25   27 1    
    50   25   87 1    
    51   26   88 1    
    52   26   89 1    
    53   26   90 1    
    54   27   28 am   BACKBONE|DICT|INTERRES
    55   27   91 1    
    56   28   29 2    
    57   28   30 1    
    58   30   31 1    
    59   30   32 1    
    60   30   92 1    
    61   31   93 1    
    62   31   94 1    
    63   31   95 1    
    64   32   33 am   BACKBONE|DICT|INTERRES
    65   32   96 1    
    66   33   34 2    
    67   33   35 1    
    68   35   36 1    
    69   35   37 1    
    70   35   97 1    
    71   36   98 1    
    72   36   99 1    
    73   36  100 1    
    74   37   38 am   BACKBONE|DICT|INTERRES
    75   37  101 1    
    76   38   39 2    
    77   38   40 1    
    78   40   41 1    
    79   40   42 1    
    80   40  102 1    
    81   41  103 1    
    82   41  104 1    
    83   41  105 1    
    84   42   43 am   BACKBONE|DICT|INTERRES
    85   42  106 1    
    86   43   44 2    
    87   43   45 1    
    88   45   46 1    
    89   45   49 1    
    90   45  107 1    
    91   46   47 1    
    92   46  108 1    
    93   46  109 1    
    94   47   48 1    
    95   48  110 1    
    96   48  111 1    
    97   49   50 am   BACKBONE|DICT|INTERRES
    98   49  112 1    
    99   50   51 2    
   100   50   52 1    
   101   52   53 1    
   102   52   54 1    
   103   52  113 1    
   104   53  114 1    
   105   53  115 1    
   106   53  116 1    
   107   54   55 am   BACKBONE|DICT|INTERRES
   108   54  117 1    
   109   55   56 2    
   110   55   57 1    
   111   57   58 1    
   112   57   59 1    
   113   57  118 1    
   114   58  119 1    
   115   58  120 1    
   116   58  121 1    
   117   59   60 am   BACKBONE|DICT|INTERRES
   118   59  122 1    
   119   60   61 2    
   120   60   62 1    
   121   62   63 1    
   122   62   64 1    
   123   62  123 1    
   124   63  124 1    
   125   63  125 1    
   126   63  126 1    
   127   64   65 am   BACKBONE|DICT|INTERRES
   128   64  127 1    
   129   65   66 2    
@<TRIPOS>SUBSTRUCTURE
     1 UNK         1 GROUP             0       ****    0 ROOT    
