@<TRIPOS>MOLECULE
3R135
127   129    1
SMALL
USER_CHARGES


@<TRIPOS>ATOM
      1 CA        -83.9607   30.5033  -74.9694 C.3       0 UNK        -0.1998 
      2 C         -83.5144   29.1435  -74.4526 C.2       0 UNK         0.4909 
      3 O         -84.3541   28.2675  -74.2419 O.2       0 UNK        -0.5240 
      4 N         -82.2016   28.9708  -74.2427 N.am      1 UNK        -0.4739 
      5 CA        -81.5481   27.7284  -73.8081 C.3       1 UNK         0.0864 
      6 C6        -82.0469   27.2360  -72.4160 C.3       11 UNK        -0.0881 
      7 S7        -80.7978   26.2896  -71.4689 S.3       11 UNK        -0.2682 
      8 C8        -80.3562   27.4370  -70.1224 C.3       11 UNK         0.0289 
      9 C9        -79.1090   28.2465  -70.4491 C.ar      11 UNK        -0.0687 
     10 C10       -79.1466   29.2413  -71.4278 C.ar      11 UNK        -0.0823 
     11 C11       -77.9994   29.9750  -71.7404 C.ar      11 UNK        -0.0830 
     12 C12       -76.8211   29.7483  -71.0225 C.ar      11 UNK        -0.1021 
     13 C13       -76.7681   28.7640  -70.0243 C.ar      11 UNK        -0.0753 
     14 C14       -77.9170   28.0123  -69.7572 C.ar      11 UNK        -0.0933 
     15 C15       -75.5182   28.4849  -69.1835 C.3       11 UNK         0.0166 
     16 S16       -73.9645   29.2513  -69.7597 S.3       11 UNK        -0.2615 
     17 C17       -73.6272   28.2496  -71.2439 C.3       11 UNK        -0.0865 
     18 CA        -72.4115   28.7636  -72.0623 C.3       10 UNK         0.0862 
     19 C         -71.0552   28.2151  -71.5195 C.2       10 UNK         0.5551 
     20 N         -70.2594   27.4913  -72.2989 N.am      10 UNK        -0.7319 
     21 O         -70.7059   28.4616  -70.3680 O.2       10 UNK        -0.5018 
     22 N         -72.6274   28.5386  -73.4985 N.am      10 UNK        -0.4509 
     23 C         -72.0280   29.2221  -74.4804 C.2       10 UNK         0.4899 
     24 O         -71.2833   30.1841  -74.2840 O.2       10 UNK        -0.4839 
     25 CA        -72.3060   28.7462  -75.9216 C.3       9 UNK         0.0222 
     26 CB        -71.2808   29.2951  -76.9361 C.3       9 UNK        -0.1966 
     27 N         -72.4225   27.2868  -76.0631 N.am      9 UNK        -0.4218 
     28 C         -71.5166   26.3620  -75.7060 C.2       9 UNK         0.5020 
     29 O         -70.4628   26.6253  -75.1246 O.2       9 UNK        -0.5274 
     30 CA        -71.8225   24.8908  -76.0429 C.3       8 UNK         0.0270 
     31 CB        -72.1190   24.0823  -74.7701 C.3       8 UNK        -0.1976 
     32 N         -72.9191   24.7100  -77.0004 N.am      8 UNK        -0.4313 
     33 C         -72.7938   24.8747  -78.3245 C.2       8 UNK         0.5041 
     34 O         -71.7565   25.2530  -78.8699 O.2       8 UNK        -0.5577 
     35 CA        -74.0236   24.5712  -79.1879 C.3       7 UNK         0.0284 
     36 CB        -74.3043   23.0588  -79.2453 C.3       7 UNK        -0.1958 
     37 N         -75.2089   25.2798  -78.6976 N.am      7 UNK        -0.4454 
     38 C         -75.9241   26.1448  -79.4300 C.2       7 UNK         0.5089 
     39 O         -75.6487   26.4534  -80.5903 O.2       7 UNK        -0.5125 
     40 CA        -77.1727   26.7691  -78.7838 C.3       6 UNK         0.0408 
     41 CB        -78.4261   25.9528  -79.1373 C.3       6 UNK        -0.1791 
     42 N         -77.0893   26.9279  -77.3302 N.am      6 UNK        -0.4762 
     43 C         -76.3290   27.8457  -76.7146 C.2       6 UNK         0.5007 
     44 O         -75.5362   28.5747  -77.3091 O.2       6 UNK        -0.5032 
     45 CA        -76.4717   27.9748  -75.1871 C.3       5 UNK         0.0783 
     46 C46       -77.6240   28.9426  -74.7958 C.3       11 UNK        -0.0857 
     47 S47       -76.9815   30.5727  -74.2772 S.3       11 UNK        -0.2512 
     48 C48       -78.0396   31.0131  -72.8550 C.3       11 UNK         0.0225 
     49 N         -76.6325   26.6556  -74.5732 N.am      5 UNK        -0.4615 
     50 C         -75.6650   26.0173  -73.9044 C.2       4 UNK         0.5053 
     51 O         -74.5351   26.4713  -73.7342 O.2       4 UNK        -0.5105 
     52 CA        -75.9965   24.6165  -73.3619 C.3       4 UNK         0.0263 
     53 CB        -76.7335   24.7375  -72.0175 C.3       4 UNK        -0.1981 
     54 N         -76.7915   23.8030  -74.2857 N.am      4 UNK        -0.4224 
     55 C         -76.4820   23.5456  -75.5657 C.2       3 UNK         0.4895 
     56 O         -75.4338   23.9011  -76.1054 O.2       3 UNK        -0.5091 
     57 CA        -77.5475   22.8330  -76.4184 C.3       3 UNK         0.0250 
     58 CB        -77.2749   21.3216  -76.4529 C.3       3 UNK        -0.1996 
     59 N         -78.9409   23.0699  -76.0102 N.am      3 UNK        -0.4254 
     60 C         -79.5203   24.2645  -75.8113 C.2       2 UNK         0.5004 
     61 O         -78.9092   25.3331  -75.9064 O.2       2 UNK        -0.5226 
     62 CA        -81.0094   24.2693  -75.4089 C.3       2 UNK         0.0269 
     63 CB        -81.4606   22.9733  -74.7049 C.3       2 UNK        -0.1926 
     64 N         -81.2796   25.3991  -74.5210 N.am      2 UNK        -0.4687 
     65 C         -81.5649   26.6457  -74.9137 C.2       1 UNK         0.5165 
     66 O         -81.7805   26.9566  -76.0888 O.2       1 UNK        -0.5079 
     67 H67       -84.4564   30.3931  -75.9336 H         1 UNK         0.0900 
     68 H68       -84.6660   30.9563  -74.2732 H         1 UNK         0.0900 
     69 H69       -83.1224   31.1882  -75.0958 H         1 UNK         0.0900 
     70 H70       -81.5728   29.7251  -74.4797 H         1 UNK         0.2959 
     71 H71       -80.4955   27.9905  -73.7099 H         1 UNK         0.1079 
     72 H72       -82.3592   28.0910  -71.8154 H         1 UNK         0.0837 
     73 H73       -82.9457   26.6248  -72.5196 H         1 UNK         0.0837 
     74 H74       -81.1848   28.1070  -69.8908 H         1 UNK         0.0685 
     75 H75       -80.1937   26.8468  -69.2192 H         1 UNK         0.0685 
     76 H76       -80.0702   29.4364  -71.9525 H         1 UNK         0.1434 
     77 H77       -75.9502   30.3429  -71.2581 H         1 UNK         0.1329 
     78 H78       -77.8866   27.2494  -68.9910 H         1 UNK         0.1335 
     79 H79       -75.7083   28.8377  -68.1690 H         1 UNK         0.0680 
     80 H80       -75.3633   27.4072  -69.1094 H         1 UNK         0.0680 
     81 H81       -73.5090   27.1996  -70.9688 H         1 UNK         0.1032 
     82 H82       -74.5301   28.2912  -71.8542 H         1 UNK         0.1032 
     83 H83       -72.3625   29.8465  -71.9320 H         1 UNK         0.0461 
     84 H84       -70.5011   27.2942  -73.2647 H         1 UNK         0.3453 
     85 H85       -69.3860   27.1546  -71.9271 H         1 UNK         0.3453 
     86 H86       -73.2210   27.7450  -73.7328 H         1 UNK         0.2984 
     87 H87       -73.2779   29.1617  -76.1844 H         1 UNK         0.0554 
     88 H88       -71.2723   30.3857  -76.9370 H         1 UNK         0.0847 
     89 H89       -71.5172   28.9748  -77.9509 H         1 UNK         0.0847 
     90 H90       -70.2684   28.9609  -76.7063 H         1 UNK         0.0847 
     91 H91       -73.2651   26.9558  -76.5099 H         1 UNK         0.3141 
     92 H92       -70.9137   24.4779  -76.4863 H         1 UNK         0.0743 
     93 H93       -73.0216   24.4308  -74.2739 H         1 UNK         0.0784 
     94 H94       -72.2481   23.0233  -74.9938 H         1 UNK         0.0784 
     95 H95       -71.3011   24.1653  -74.0530 H         1 UNK         0.0784 
     96 H96       -73.8073   24.3764  -76.6245 H         1 UNK         0.3213 
     97 H97       -73.7789   24.8940  -80.2022 H         1 UNK         0.0855 
     98 H98       -74.5475   22.6456  -78.2665 H         1 UNK         0.0814 
     99 H99       -73.4350   22.5164  -79.6195 H         1 UNK         0.0814 
    100 H100      -75.1355   22.8382  -79.9149 H         1 UNK         0.0814 
    101 H101      -75.4975   25.0810  -77.7462 H         1 UNK         0.3105 
    102 H102      -77.2965   27.7642  -79.2169 H         1 UNK         0.0547 
    103 H103      -78.5527   25.8812  -80.2183 H         1 UNK         0.0837 
    104 H104      -78.3716   24.9364  -78.7493 H         1 UNK         0.0837 
    105 H105      -79.3280   26.4154  -78.7356 H         1 UNK         0.0837 
    106 H106      -77.7335   26.3631  -76.7779 H         1 UNK         0.3020 
    107 H107      -75.5301   28.4067  -74.8405 H         1 UNK         0.1245 
    108 H108      -78.1981   28.5186  -73.9736 H         1 UNK         0.0781 
    109 H109      -78.3470   29.0865  -75.6017 H         1 UNK         0.0781 
    110 H110      -79.0600   31.1643  -73.2105 H         1 UNK         0.0836 
    111 H111      -77.7117   31.9745  -72.4573 H         1 UNK         0.0836 
    112 H112      -77.5120   26.1783  -74.7412 H         1 UNK         0.3022 
    113 H113      -75.0557   24.0916  -73.1902 H         1 UNK         0.0747 
    114 H114      -76.8974   23.7603  -71.5633 H         1 UNK         0.0793 
    115 H115      -76.1545   25.3303  -71.3073 H         1 UNK         0.0793 
    116 H116      -77.7036   25.2247  -72.1282 H         1 UNK         0.0793 
    117 H117      -77.6790   23.4683  -73.9419 H         1 UNK         0.3047 
    118 H118      -77.4418   23.2145  -77.4350 H         1 UNK         0.0822 
    119 H119      -77.9382   20.8135  -77.1532 H         1 UNK         0.0807 
    120 H120      -77.4070   20.8645  -75.4714 H         1 UNK         0.0807 
    121 H121      -76.2524   21.1154  -76.7735 H         1 UNK         0.0807 
    122 H122      -79.5135   22.2459  -75.8952 H         1 UNK         0.2946 
    123 H123      -81.5896   24.3829  -76.3274 H         1 UNK         0.1144 
    124 H124      -82.4968   23.0494  -74.3737 H         1 UNK         0.0793 
    125 H125      -80.8510   22.7522  -73.8275 H         1 UNK         0.0793 
    126 H126      -81.4112   22.1135  -75.3740 H         1 UNK         0.0793 
    127 H127      -81.0864   25.2562  -73.5376 H         1 UNK         0.2896 
@<TRIPOS>BOND
     1    1    2 1    
     2    1   67 1    
     3    1   68 1    
     4    1   69 1    
     5    2    3 2    
     6    2    4 am   BACKBONE|DICT|INTERRES
     7    4    5 1    
     8    4   70 1    
     9    5    6 1    
    10    5   65 1    
    11    5   71 1    
    12    6    7 1    
    13    6   72 1    
    14    6   73 1    
    15    7    8 1    
    16    8    9 1    
    17    8   74 1    
    18    8   75 1    
    19    9   10 ar   
    20    9   14 ar   
    21   10   11 ar   
    22   10   76 1    
    23   11   12 ar   
    24   11   48 1    
    25   12   13 ar   
    26   12   77 1    
    27   13   14 ar   
    28   13   15 1    
    29   14   78 1    
    30   15   16 1    
    31   15   79 1    
    32   15   80 1    
    33   16   17 1    
    34   17   18 1    
    35   17   81 1    
    36   17   82 1    
    37   18   19 1    
    38   18   22 1    
    39   18   83 1    
    40   19   20 am   BACKBONE|DICT|INTERRES
    41   19   21 2    
    42   20   84 1    
    43   20   85 1    
    44   22   23 am   BACKBONE|DICT|INTERRES
    45   22   86 1    
    46   23   24 2    
    47   23   25 1    
    48   25   26 1    
    49   25   27 1    
    50   25   87 1    
    51   26   88 1    
    52   26   89 1    
    53   26   90 1    
    54   27   28 am   BACKBONE|DICT|INTERRES
    55   27   91 1    
    56   28   29 2    
    57   28   30 1    
    58   30   31 1    
    59   30   32 1    
    60   30   92 1    
    61   31   93 1    
    62   31   94 1    
    63   31   95 1    
    64   32   33 am   BACKBONE|DICT|INTERRES
    65   32   96 1    
    66   33   34 2    
    67   33   35 1    
    68   35   36 1    
    69   35   37 1    
    70   35   97 1    
    71   36   98 1    
    72   36   99 1    
    73   36  100 1    
    74   37   38 am   BACKBONE|DICT|INTERRES
    75   37  101 1    
    76   38   39 2    
    77   38   40 1    
    78   40   41 1    
    79   40   42 1    
    80   40  102 1    
    81   41  103 1    
    82   41  104 1    
    83   41  105 1    
    84   42   43 am   BACKBONE|DICT|INTERRES
    85   42  106 1    
    86   43   44 2    
    87   43   45 1    
    88   45   46 1    
    89   45   49 1    
    90   45  107 1    
    91   46   47 1    
    92   46  108 1    
    93   46  109 1    
    94   47   48 1    
    95   48  110 1    
    96   48  111 1    
    97   49   50 am   BACKBONE|DICT|INTERRES
    98   49  112 1    
    99   50   51 2    
   100   50   52 1    
   101   52   53 1    
   102   52   54 1    
   103   52  113 1    
   104   53  114 1    
   105   53  115 1    
   106   53  116 1    
   107   54   55 am   BACKBONE|DICT|INTERRES
   108   54  117 1    
   109   55   56 2    
   110   55   57 1    
   111   57   58 1    
   112   57   59 1    
   113   57  118 1    
   114   58  119 1    
   115   58  120 1    
   116   58  121 1    
   117   59   60 am   BACKBONE|DICT|INTERRES
   118   59  122 1    
   119   60   61 2    
   120   60   62 1    
   121   62   63 1    
   122   62   64 1    
   123   62  123 1    
   124   63  124 1    
   125   63  125 1    
   126   63  126 1    
   127   64   65 am   BACKBONE|DICT|INTERRES
   128   64  127 1    
   129   65   66 2    
@<TRIPOS>SUBSTRUCTURE
     1 UNK         1 GROUP             0       ****    0 ROOT    
