@<TRIPOS>MOLECULE
3R135
127   129    1
SMALL
USER_CHARGES


@<TRIPOS>ATOM
      1 CA        -81.9037   23.3318  -67.5373 C.3       0 UNK        -0.1998 
      2 C         -81.1052   23.9548  -68.6729 C.2       0 UNK         0.4909 
      3 O         -79.9258   23.6382  -68.8329 O.2       0 UNK        -0.5240 
      4 N         -81.7401   24.8405  -69.4536 N.am      1 UNK        -0.4739 
      5 CA        -81.1797   25.5190  -70.6301 C.3       1 UNK         0.0864 
      6 C6        -79.9788   26.4466  -70.2704 C.3       11 UNK        -0.0881 
      7 S7        -79.8788   27.9125  -71.3511 S.3       11 UNK        -0.2682 
      8 C8        -78.1586   27.8352  -71.9373 C.3       11 UNK         0.0289 
      9 C9        -77.8756   28.9719  -72.9055 C.ar      11 UNK        -0.0687 
     10 C10       -78.2705   28.8684  -74.2418 C.ar      11 UNK        -0.0823 
     11 C11       -78.0590   29.9261  -75.1325 C.ar      11 UNK        -0.0830 
     12 C12       -77.4350   31.0932  -74.6731 C.ar      11 UNK        -0.1021 
     13 C13       -77.0260   31.2044  -73.3400 C.ar      11 UNK        -0.0753 
     14 C14       -77.2507   30.1398  -72.4615 C.ar      11 UNK        -0.0933 
     15 C15       -76.3945   32.4922  -72.8272 C.3       11 UNK         0.0166 
     16 S16       -74.6834   32.2466  -72.2531 S.3       11 UNK        -0.2615 
     17 C17       -73.7408   32.2575  -73.8186 C.3       11 UNK        -0.0865 
     18 CA        -73.5231   30.8469  -74.4403 C.3       10 UNK         0.0862 
     19 C         -72.7268   30.9022  -75.7812 C.2       10 UNK         0.5551 
     20 N         -72.0141   29.8508  -76.1650 N.am      10 UNK        -0.7319 
     21 O         -72.7730   31.8992  -76.4976 O.2       10 UNK        -0.5018 
     22 N         -73.0226   29.8548  -73.4742 N.am      10 UNK        -0.4509 
     23 C         -71.8292   29.8604  -72.8635 C.2       10 UNK         0.4899 
     24 O         -70.9719   30.7278  -73.0342 O.2       10 UNK        -0.4839 
     25 CA        -71.5364   28.7085  -71.8790 C.3       9 UNK         0.0222 
     26 CB        -71.5616   29.2272  -70.4313 C.3       9 UNK        -0.1966 
     27 N         -72.4624   27.5752  -71.9943 N.am      9 UNK        -0.4218 
     28 C         -72.5192   26.7342  -73.0359 C.2       9 UNK         0.5020 
     29 O         -71.7308   26.7757  -73.9839 O.2       9 UNK        -0.5274 
     30 CA        -73.6554   25.6973  -73.0116 C.3       8 UNK         0.0270 
     31 CB        -75.0202   26.3396  -72.6915 C.3       8 UNK        -0.1976 
     32 N         -73.7474   25.0515  -74.3177 N.am      8 UNK        -0.4313 
     33 C         -73.7510   23.7336  -74.5517 C.2       8 UNK         0.5041 
     34 O         -73.7264   22.8852  -73.6584 O.2       8 UNK        -0.5577 
     35 CA        -73.7872   23.2651  -76.0216 C.3       7 UNK         0.0284 
     36 CB        -75.0271   22.4014  -76.3084 C.3       7 UNK        -0.1958 
     37 N         -73.7560   24.3780  -76.9734 N.am      7 UNK        -0.4454 
     38 C         -72.6356   24.9590  -77.4250 C.2       7 UNK         0.5089 
     39 O         -71.5037   24.5527  -77.1612 O.2       7 UNK        -0.5125 
     40 CA        -72.7911   26.2082  -78.3143 C.3       6 UNK         0.0408 
     41 CB        -72.5233   25.8532  -79.7858 C.3       6 UNK        -0.1791 
     42 N         -74.0963   26.8698  -78.2145 N.am      6 UNK        -0.4762 
     43 C         -74.5885   27.4616  -77.1158 C.2       6 UNK         0.5007 
     44 O         -74.0054   27.4912  -76.0336 O.2       6 UNK        -0.5032 
     45 CA        -75.9935   28.0799  -77.2338 C.3       5 UNK         0.0783 
     46 C46       -75.8880   29.5643  -77.6630 C.3       11 UNK        -0.0857 
     47 S47       -77.4561   30.4879  -77.8397 S.3       11 UNK        -0.2512 
     48 C48       -78.5737   29.8049  -76.5652 C.3       11 UNK         0.0225 
     49 N         -76.8823   27.3061  -78.1099 N.am      5 UNK        -0.4615 
     50 C         -77.2700   26.0488  -77.8678 C.2       4 UNK         0.5053 
     51 O         -76.8444   25.3650  -76.9338 O.2       4 UNK        -0.5105 
     52 CA        -78.2838   25.4418  -78.8377 C.3       4 UNK         0.0263 
     53 CB        -77.5738   24.6311  -79.9345 C.3       4 UNK        -0.1981 
     54 N         -79.1536   24.5669  -78.0615 N.am      4 UNK        -0.4224 
     55 C         -80.4777   24.4467  -78.2069 C.2       3 UNK         0.4895 
     56 O         -81.1215   24.9961  -79.1018 O.2       3 UNK        -0.5091 
     57 CA        -81.2195   23.5653  -77.1835 C.3       3 UNK         0.0250 
     58 CB        -81.5173   22.1821  -77.7860 C.3       3 UNK        -0.1996 
     59 N         -80.4999   23.3915  -75.9158 N.am      3 UNK        -0.4254 
     60 C         -80.3421   24.3480  -74.9903 C.2       2 UNK         0.5004 
     61 O         -80.7807   25.4955  -75.1025 O.2       2 UNK        -0.5226 
     62 CA        -79.5156   23.9604  -73.7546 C.3       2 UNK         0.0269 
     63 CB        -78.0163   24.1447  -74.0334 C.3       2 UNK        -0.1926 
     64 N         -79.8828   24.7714  -72.5943 N.am      2 UNK        -0.4687 
     65 C         -80.9152   24.5177  -71.7826 C.2       1 UNK         0.5165 
     66 O         -81.6581   23.5418  -71.9237 O.2       1 UNK        -0.5079 
     67 H67       -81.9452   22.2496  -67.6583 H         1 UNK         0.0900 
     68 H68       -82.9259   23.7083  -67.5021 H         1 UNK         0.0900 
     69 H69       -81.4292   23.5502  -66.5810 H         1 UNK         0.0900 
     70 H70       -82.7181   25.0286  -69.2805 H         1 UNK         0.2959 
     71 H71       -81.9928   26.1515  -70.9907 H         1 UNK         0.1079 
     72 H72       -80.1022   26.8306  -69.2564 H         1 UNK         0.0837 
     73 H73       -79.0344   25.8988  -70.2534 H         1 UNK         0.0837 
     74 H74       -77.4817   27.8830  -71.0827 H         1 UNK         0.0685 
     75 H75       -77.9727   26.8808  -72.4290 H         1 UNK         0.0685 
     76 H76       -78.7726   27.9705  -74.5781 H         1 UNK         0.1434 
     77 H77       -77.2856   31.9238  -75.3492 H         1 UNK         0.1329 
     78 H78       -76.9534   30.2312  -71.4257 H         1 UNK         0.1335 
     79 H79       -76.4216   33.2769  -73.5848 H         1 UNK         0.0680 
     80 H80       -76.9895   32.8602  -71.9903 H         1 UNK         0.0680 
     81 H81       -72.7766   32.7288  -73.6213 H         1 UNK         0.1032 
     82 H82       -74.2478   32.9120  -74.5297 H         1 UNK         0.1032 
     83 H83       -74.5074   30.4761  -74.7246 H         1 UNK         0.0461 
     84 H84       -71.5014   29.8877  -77.0307 H         1 UNK         0.3453 
     85 H85       -72.0319   29.0015  -75.6180 H         1 UNK         0.3453 
     86 H86       -73.6488   29.0889  -73.2809 H         1 UNK         0.2984 
     87 H87       -70.5293   28.3454  -72.0942 H         1 UNK         0.0554 
     88 H88       -71.2900   28.4452  -69.7219 H         1 UNK         0.0847 
     89 H89       -72.5461   29.6077  -70.1557 H         1 UNK         0.0847 
     90 H90       -70.8501   30.0433  -70.2966 H         1 UNK         0.0847 
     91 H91       -73.1324   27.4646  -71.2467 H         1 UNK         0.3141 
     92 H92       -73.4111   24.9664  -72.2383 H         1 UNK         0.0743 
     93 H93       -75.0387   26.7896  -71.6989 H         1 UNK         0.0784 
     94 H94       -75.2821   27.1141  -73.4144 H         1 UNK         0.0784 
     95 H95       -75.8105   25.5912  -72.7082 H         1 UNK         0.0784 
     96 H96       -73.6927   25.6935  -75.1030 H         1 UNK         0.3213 
     97 H97       -72.9060   22.6376  -76.1721 H         1 UNK         0.0855 
     98 H98       -75.0939   21.5624  -75.6146 H         1 UNK         0.0814 
     99 H99       -74.9935   21.9854  -77.3154 H         1 UNK         0.0814 
    100 H100      -75.9470   22.9757  -76.2175 H         1 UNK         0.0814 
    101 H101      -74.6499   24.7913  -77.2111 H         1 UNK         0.3105 
    102 H102      -72.0340   26.9265  -77.9928 H         1 UNK         0.0547 
    103 H103      -71.5433   25.3885  -79.9036 H         1 UNK         0.0837 
    104 H104      -73.2639   25.1524  -80.1734 H         1 UNK         0.0837 
    105 H105      -72.5348   26.7409  -80.4183 H         1 UNK         0.0837 
    106 H106      -74.6629   26.8801  -79.0504 H         1 UNK         0.3020 
    107 H107      -76.4114   28.0348  -76.2275 H         1 UNK         0.1245 
    108 H108      -75.2838   30.1154  -76.9429 H         1 UNK         0.0781 
    109 H109      -75.3591   29.6457  -78.6147 H         1 UNK         0.0781 
    110 H110      -78.8051   28.7677  -76.8095 H         1 UNK         0.0836 
    111 H111      -79.5219   30.3402  -76.6270 H         1 UNK         0.0836 
    112 H112      -77.2658   27.8007  -78.9029 H         1 UNK         0.3022 
    113 H113      -78.8659   26.2469  -79.2918 H         1 UNK         0.0747 
    114 H114      -78.2926   24.1796  -80.6186 H         1 UNK         0.0793 
    115 H115      -76.9157   25.2666  -80.5285 H         1 UNK         0.0793 
    116 H116      -76.9645   23.8298  -79.5137 H         1 UNK         0.0793 
    117 H117      -78.7041   24.1337  -77.2656 H         1 UNK         0.3047 
    118 H118      -82.1717   24.0548  -76.9667 H         1 UNK         0.0822 
    119 H119      -82.1146   21.5728  -77.1074 H         1 UNK         0.0807 
    120 H120      -80.6020   21.6345  -78.0144 H         1 UNK         0.0807 
    121 H121      -82.0814   22.2745  -78.7154 H         1 UNK         0.0807 
    122 H122      -80.1022   22.4780  -75.7479 H         1 UNK         0.2946 
    123 H123      -79.7006   22.9082  -73.5242 H         1 UNK         0.1144 
    124 H124      -77.4137   23.8564  -73.1721 H         1 UNK         0.0793 
    125 H125      -77.7719   25.1758  -74.2924 H         1 UNK         0.0793 
    126 H126      -77.7000   23.5193  -74.8669 H         1 UNK         0.0793 
    127 H127      -79.3846   25.6396  -72.4684 H         1 UNK         0.2896 
@<TRIPOS>BOND
     1    1    2 1    
     2    1   67 1    
     3    1   68 1    
     4    1   69 1    
     5    2    3 2    
     6    2    4 am   BACKBONE|DICT|INTERRES
     7    4    5 1    
     8    4   70 1    
     9    5    6 1    
    10    5   65 1    
    11    5   71 1    
    12    6    7 1    
    13    6   72 1    
    14    6   73 1    
    15    7    8 1    
    16    8    9 1    
    17    8   74 1    
    18    8   75 1    
    19    9   10 ar   
    20    9   14 ar   
    21   10   11 ar   
    22   10   76 1    
    23   11   12 ar   
    24   11   48 1    
    25   12   13 ar   
    26   12   77 1    
    27   13   14 ar   
    28   13   15 1    
    29   14   78 1    
    30   15   16 1    
    31   15   79 1    
    32   15   80 1    
    33   16   17 1    
    34   17   18 1    
    35   17   81 1    
    36   17   82 1    
    37   18   19 1    
    38   18   22 1    
    39   18   83 1    
    40   19   20 am   BACKBONE|DICT|INTERRES
    41   19   21 2    
    42   20   84 1    
    43   20   85 1    
    44   22   23 am   BACKBONE|DICT|INTERRES
    45   22   86 1    
    46   23   24 2    
    47   23   25 1    
    48   25   26 1    
    49   25   27 1    
    50   25   87 1    
    51   26   88 1    
    52   26   89 1    
    53   26   90 1    
    54   27   28 am   BACKBONE|DICT|INTERRES
    55   27   91 1    
    56   28   29 2    
    57   28   30 1    
    58   30   31 1    
    59   30   32 1    
    60   30   92 1    
    61   31   93 1    
    62   31   94 1    
    63   31   95 1    
    64   32   33 am   BACKBONE|DICT|INTERRES
    65   32   96 1    
    66   33   34 2    
    67   33   35 1    
    68   35   36 1    
    69   35   37 1    
    70   35   97 1    
    71   36   98 1    
    72   36   99 1    
    73   36  100 1    
    74   37   38 am   BACKBONE|DICT|INTERRES
    75   37  101 1    
    76   38   39 2    
    77   38   40 1    
    78   40   41 1    
    79   40   42 1    
    80   40  102 1    
    81   41  103 1    
    82   41  104 1    
    83   41  105 1    
    84   42   43 am   BACKBONE|DICT|INTERRES
    85   42  106 1    
    86   43   44 2    
    87   43   45 1    
    88   45   46 1    
    89   45   49 1    
    90   45  107 1    
    91   46   47 1    
    92   46  108 1    
    93   46  109 1    
    94   47   48 1    
    95   48  110 1    
    96   48  111 1    
    97   49   50 am   BACKBONE|DICT|INTERRES
    98   49  112 1    
    99   50   51 2    
   100   50   52 1    
   101   52   53 1    
   102   52   54 1    
   103   52  113 1    
   104   53  114 1    
   105   53  115 1    
   106   53  116 1    
   107   54   55 am   BACKBONE|DICT|INTERRES
   108   54  117 1    
   109   55   56 2    
   110   55   57 1    
   111   57   58 1    
   112   57   59 1    
   113   57  118 1    
   114   58  119 1    
   115   58  120 1    
   116   58  121 1    
   117   59   60 am   BACKBONE|DICT|INTERRES
   118   59  122 1    
   119   60   61 2    
   120   60   62 1    
   121   62   63 1    
   122   62   64 1    
   123   62  123 1    
   124   63  124 1    
   125   63  125 1    
   126   63  126 1    
   127   64   65 am   BACKBONE|DICT|INTERRES
   128   64  127 1    
   129   65   66 2    
@<TRIPOS>SUBSTRUCTURE
     1 UNK         1 GROUP             0       ****    0 ROOT    
