@<TRIPOS>MOLECULE
3R135
127   129    1
SMALL
USER_CHARGES


@<TRIPOS>ATOM
      1 CA        -83.6610   28.8235  -74.7733 C.3       0 UNK        -0.1998 
      2 C         -82.2091   29.1089  -75.1493 C.2       0 UNK         0.4909 
      3 O         -81.9760   29.7221  -76.1891 O.2       0 UNK        -0.5240 
      4 N         -81.1972   28.7129  -74.3620 N.am      1 UNK        -0.4739 
      5 CA        -81.2291   27.9390  -73.1089 C.3       1 UNK         0.0864 
      6 C6        -81.9803   28.6190  -71.9264 C.3       11 UNK        -0.0881 
      7 S7        -81.5198   30.3702  -71.6659 S.3       11 UNK        -0.2682 
      8 C8        -80.3541   30.2861  -70.2663 C.3       11 UNK         0.0289 
      9 C9        -78.9998   29.7369  -70.6902 C.ar      11 UNK        -0.0687 
     10 C10       -78.6493   28.4170  -70.3910 C.ar      11 UNK        -0.0823 
     11 C11       -77.4269   27.8973  -70.8244 C.ar      11 UNK        -0.0830 
     12 C12       -76.5417   28.7126  -71.5346 C.ar      11 UNK        -0.1021 
     13 C13       -76.8779   30.0330  -71.8384 C.ar      11 UNK        -0.0753 
     14 C14       -78.1056   30.5437  -71.4039 C.ar      11 UNK        -0.0933 
     15 C15       -75.9522   30.8763  -72.7045 C.3       11 UNK         0.0166 
     16 S16       -74.7409   31.8287  -71.7336 S.3       11 UNK        -0.2615 
     17 C17       -73.4998   30.5730  -71.2606 C.3       11 UNK        -0.0865 
     18 CA        -72.2971   30.5120  -72.2385 C.3       10 UNK         0.0862 
     19 C         -71.1483   29.6566  -71.6438 C.2       10 UNK         0.5551 
     20 N         -70.1157   30.2883  -71.1036 N.am      10 UNK        -0.7319 
     21 O         -71.2111   28.4288  -71.6285 O.2       10 UNK        -0.5018 
     22 N         -72.6883   29.9899  -73.5548 N.am      10 UNK        -0.4509 
     23 C         -72.0571   30.2714  -74.7001 C.2       10 UNK         0.4899 
     24 O         -71.1387   31.0877  -74.7976 O.2       10 UNK        -0.4839 
     25 CA        -72.5424   29.4921  -75.9367 C.3       9 UNK         0.0222 
     26 CB        -71.8120   29.8927  -77.2359 C.3       9 UNK        -0.1966 
     27 N         -72.4870   28.0400  -75.7346 N.am      9 UNK        -0.4218 
     28 C         -71.4066   27.2863  -75.4742 C.2       9 UNK         0.5020 
     29 O         -70.2610   27.7243  -75.3592 O.2       9 UNK        -0.5274 
     30 CA        -71.6436   25.7715  -75.3358 C.3       8 UNK         0.0270 
     31 CB        -72.1381   25.4269  -73.9211 C.3       8 UNK        -0.1976 
     32 N         -72.5815   25.2450  -76.3329 N.am      8 UNK        -0.4313 
     33 C         -72.3403   25.1872  -77.6516 C.2       8 UNK         0.5041 
     34 O         -71.2667   25.5028  -78.1667 O.2       8 UNK        -0.5577 
     35 CA        -73.4921   24.7110  -78.5556 C.3       7 UNK         0.0284 
     36 CB        -73.5735   23.1763  -78.5846 C.3       7 UNK        -0.1958 
     37 N         -74.7864   25.2721  -78.1614 N.am      7 UNK        -0.4454 
     38 C         -75.1089   26.5705  -78.2587 C.2       7 UNK         0.5089 
     39 O         -74.3854   27.4221  -78.7748 O.2       7 UNK        -0.5125 
     40 CA        -76.4523   27.0019  -77.6460 C.3       6 UNK         0.0408 
     41 CB        -77.5990   26.8092  -78.6503 C.3       6 UNK        -0.1791 
     42 N         -76.7629   26.2940  -76.4024 N.am      6 UNK        -0.4762 
     43 C         -76.0495   26.3908  -75.2709 C.2       6 UNK         0.5007 
     44 O         -75.0748   27.1304  -75.1372 O.2       6 UNK        -0.5032 
     45 CA        -76.4747   25.4870  -74.0991 C.3       5 UNK         0.0783 
     46 C46       -77.6914   26.0938  -73.3749 C.3       11 UNK        -0.0857 
     47 S47       -78.0095   25.3412  -71.7424 S.3       11 UNK        -0.2512 
     48 C48       -77.0888   26.4311  -70.6040 C.3       11 UNK         0.0225 
     49 N         -76.7443   24.1193  -74.5443 N.am      5 UNK        -0.4615 
     50 C         -75.8395   23.2880  -75.0731 C.2       4 UNK         0.5053 
     51 O         -74.6470   23.5629  -75.1966 O.2       4 UNK        -0.5105 
     52 CA        -76.3719   21.9421  -75.5914 C.3       4 UNK         0.0263 
     53 CB        -76.4531   20.9177  -74.4489 C.3       4 UNK        -0.1981 
     54 N         -77.6843   22.0689  -76.2350 N.am      4 UNK        -0.4224 
     55 C         -77.9021   22.7308  -77.3815 C.2       3 UNK         0.4895 
     56 O         -77.0118   23.2704  -78.0390 O.2       3 UNK        -0.5091 
     57 CA        -79.3666   22.8507  -77.8430 C.3       3 UNK         0.0250 
     58 CB        -79.8265   21.5595  -78.5387 C.3       3 UNK        -0.1996 
     59 N         -80.2914   23.1859  -76.7512 N.am      3 UNK        -0.4254 
     60 C         -80.2413   24.3306  -76.0562 C.2       2 UNK         0.5004 
     61 O         -79.4207   25.2238  -76.2867 O.2       2 UNK        -0.5226 
     62 CA        -81.2261   24.4947  -74.8859 C.3       2 UNK         0.0269 
     63 CB        -80.8816   23.4826  -73.7695 C.3       2 UNK        -0.1926 
     64 N         -81.1045   25.8778  -74.4176 N.am      2 UNK        -0.4687 
     65 C         -81.6582   26.4727  -73.3536 C.2       1 UNK         0.5165 
     66 O         -82.4819   25.9335  -72.6137 O.2       1 UNK        -0.5079 
     67 H67       -83.8096   27.8118  -74.4030 H         1 UNK         0.0900 
     68 H68       -83.9991   29.5305  -74.0166 H         1 UNK         0.0900 
     69 H69       -84.3046   28.9428  -75.6447 H         1 UNK         0.0900 
     70 H70       -80.2661   28.9662  -74.6607 H         1 UNK         0.2959 
     71 H71       -80.1852   27.8689  -72.7997 H         1 UNK         0.1079 
     72 H72       -81.7966   28.0664  -71.0033 H         1 UNK         0.0837 
     73 H73       -83.0595   28.5772  -72.0741 H         1 UNK         0.0837 
     74 H74       -80.7860   29.6895  -69.4612 H         1 UNK         0.0685 
     75 H75       -80.2213   31.2904  -69.8614 H         1 UNK         0.0685 
     76 H76       -79.3418   27.7807  -69.8568 H         1 UNK         0.1434 
     77 H77       -75.6158   28.2952  -71.9044 H         1 UNK         0.1329 
     78 H78       -78.3817   31.5603  -71.6491 H         1 UNK         0.1335 
     79 H79       -76.5461   31.5784  -73.2916 H         1 UNK         0.0680 
     80 H80       -75.4376   30.2474  -73.4314 H         1 UNK         0.0680 
     81 H81       -73.9605   29.5937  -71.1446 H         1 UNK         0.1032 
     82 H82       -73.1518   30.8467  -70.2625 H         1 UNK         0.1032 
     83 H83       -71.9288   31.5323  -72.3679 H         1 UNK         0.0461 
     84 H84       -69.3682   29.7473  -70.6976 H         1 UNK         0.3453 
     85 H85       -70.0615   31.2952  -71.1051 H         1 UNK         0.3453 
     86 H86       -73.3859   29.2613  -73.5575 H         1 UNK         0.2984 
     87 H87       -73.5971   29.7401  -76.0656 H         1 UNK         0.0554 
     88 H88       -71.9360   30.9566  -77.4408 H         1 UNK         0.0847 
     89 H89       -72.2076   29.3483  -78.0938 H         1 UNK         0.0847 
     90 H90       -70.7411   29.6952  -77.1791 H         1 UNK         0.0847 
     91 H91       -73.3936   27.5753  -75.7243 H         1 UNK         0.3141 
     92 H92       -70.6845   25.2720  -75.4881 H         1 UNK         0.0743 
     93 H93       -71.4403   25.7910  -73.1654 H         1 UNK         0.0784 
     94 H94       -73.1081   25.8763  -73.7090 H         1 UNK         0.0784 
     95 H95       -72.2320   24.3493  -73.7853 H         1 UNK         0.0784 
     96 H96       -73.4619   24.8746  -75.9839 H         1 UNK         0.3213 
     97 H97       -73.2781   25.0547  -79.5700 H         1 UNK         0.0855 
     98 H98       -73.7802   22.7605  -77.5987 H         1 UNK         0.0814 
     99 H99       -72.6332   22.7440  -78.9289 H         1 UNK         0.0814 
    100 H100      -74.3560   22.8334  -79.2620 H         1 UNK         0.0814 
    101 H101      -75.4797   24.6277  -77.7946 H         1 UNK         0.3105 
    102 H102      -76.3827   28.0662  -77.4117 H         1 UNK         0.0547 
    103 H103      -78.5429   27.1788  -78.2493 H         1 UNK         0.0837 
    104 H104      -77.7365   25.7596  -78.9110 H         1 UNK         0.0837 
    105 H105      -77.4035   27.3531  -79.5753 H         1 UNK         0.0837 
    106 H106      -77.5948   25.7077  -76.4103 H         1 UNK         0.3020 
    107 H107      -75.6336   25.4540  -73.4030 H         1 UNK         0.1245 
    108 H108      -78.5798   25.9409  -73.9769 H         1 UNK         0.0781 
    109 H109      -77.6118   27.1750  -73.2954 H         1 UNK         0.0781 
    110 H110      -76.0191   26.2579  -70.7320 H         1 UNK         0.0836 
    111 H111      -77.3215   26.1511  -69.5756 H         1 UNK         0.0836 
    112 H112      -77.7027   23.8134  -74.4881 H         1 UNK         0.3022 
    113 H113      -75.6646   21.5698  -76.3357 H         1 UNK         0.0747 
    114 H114      -76.7566   19.9372  -74.8162 H         1 UNK         0.0793 
    115 H115      -75.4817   20.7946  -73.9675 H         1 UNK         0.0793 
    116 H116      -77.1621   21.2228  -73.6781 H         1 UNK         0.0793 
    117 H117      -78.4711   21.6463  -75.7645 H         1 UNK         0.3047 
    118 H118      -79.4103   23.6616  -78.5736 H         1 UNK         0.0822 
    119 H119      -80.8262   21.6706  -78.9592 H         1 UNK         0.0807 
    120 H120      -79.8426   20.7106  -77.8541 H         1 UNK         0.0807 
    121 H121      -79.1585   21.3017  -79.3620 H         1 UNK         0.0807 
    122 H122      -80.9910   22.4961  -76.5164 H         1 UNK         0.2946 
    123 H123      -82.2424   24.3306  -75.2490 H         1 UNK         0.1144 
    124 H124      -79.8833   23.6496  -73.3657 H         1 UNK         0.0793 
    125 H125      -80.9162   22.4562  -74.1359 H         1 UNK         0.0793 
    126 H126      -81.5869   23.5343  -72.9410 H         1 UNK         0.0793 
    127 H127      -80.4735   26.4173  -75.0000 H         1 UNK         0.2896 
@<TRIPOS>BOND
     1    1    2 1    
     2    1   67 1    
     3    1   68 1    
     4    1   69 1    
     5    2    3 2    
     6    2    4 am   BACKBONE|DICT|INTERRES
     7    4    5 1    
     8    4   70 1    
     9    5    6 1    
    10    5   65 1    
    11    5   71 1    
    12    6    7 1    
    13    6   72 1    
    14    6   73 1    
    15    7    8 1    
    16    8    9 1    
    17    8   74 1    
    18    8   75 1    
    19    9   10 ar   
    20    9   14 ar   
    21   10   11 ar   
    22   10   76 1    
    23   11   12 ar   
    24   11   48 1    
    25   12   13 ar   
    26   12   77 1    
    27   13   14 ar   
    28   13   15 1    
    29   14   78 1    
    30   15   16 1    
    31   15   79 1    
    32   15   80 1    
    33   16   17 1    
    34   17   18 1    
    35   17   81 1    
    36   17   82 1    
    37   18   19 1    
    38   18   22 1    
    39   18   83 1    
    40   19   20 am   BACKBONE|DICT|INTERRES
    41   19   21 2    
    42   20   84 1    
    43   20   85 1    
    44   22   23 am   BACKBONE|DICT|INTERRES
    45   22   86 1    
    46   23   24 2    
    47   23   25 1    
    48   25   26 1    
    49   25   27 1    
    50   25   87 1    
    51   26   88 1    
    52   26   89 1    
    53   26   90 1    
    54   27   28 am   BACKBONE|DICT|INTERRES
    55   27   91 1    
    56   28   29 2    
    57   28   30 1    
    58   30   31 1    
    59   30   32 1    
    60   30   92 1    
    61   31   93 1    
    62   31   94 1    
    63   31   95 1    
    64   32   33 am   BACKBONE|DICT|INTERRES
    65   32   96 1    
    66   33   34 2    
    67   33   35 1    
    68   35   36 1    
    69   35   37 1    
    70   35   97 1    
    71   36   98 1    
    72   36   99 1    
    73   36  100 1    
    74   37   38 am   BACKBONE|DICT|INTERRES
    75   37  101 1    
    76   38   39 2    
    77   38   40 1    
    78   40   41 1    
    79   40   42 1    
    80   40  102 1    
    81   41  103 1    
    82   41  104 1    
    83   41  105 1    
    84   42   43 am   BACKBONE|DICT|INTERRES
    85   42  106 1    
    86   43   44 2    
    87   43   45 1    
    88   45   46 1    
    89   45   49 1    
    90   45  107 1    
    91   46   47 1    
    92   46  108 1    
    93   46  109 1    
    94   47   48 1    
    95   48  110 1    
    96   48  111 1    
    97   49   50 am   BACKBONE|DICT|INTERRES
    98   49  112 1    
    99   50   51 2    
   100   50   52 1    
   101   52   53 1    
   102   52   54 1    
   103   52  113 1    
   104   53  114 1    
   105   53  115 1    
   106   53  116 1    
   107   54   55 am   BACKBONE|DICT|INTERRES
   108   54  117 1    
   109   55   56 2    
   110   55   57 1    
   111   57   58 1    
   112   57   59 1    
   113   57  118 1    
   114   58  119 1    
   115   58  120 1    
   116   58  121 1    
   117   59   60 am   BACKBONE|DICT|INTERRES
   118   59  122 1    
   119   60   61 2    
   120   60   62 1    
   121   62   63 1    
   122   62   64 1    
   123   62  123 1    
   124   63  124 1    
   125   63  125 1    
   126   63  126 1    
   127   64   65 am   BACKBONE|DICT|INTERRES
   128   64  127 1    
   129   65   66 2    
@<TRIPOS>SUBSTRUCTURE
     1 UNK         1 GROUP             0       ****    0 ROOT    
