@<TRIPOS>MOLECULE
3R135
127   129    1
SMALL
USER_CHARGES


@<TRIPOS>ATOM
      1 CA        -80.5400   26.9446  -66.6916 C.3       0 UNK        -0.1998 
      2 C         -80.1260   26.7692  -68.1449 C.2       0 UNK         0.4909 
      3 O         -78.9940   26.3640  -68.4096 O.2       0 UNK        -0.5240 
      4 N         -81.0428   27.0545  -69.0809 N.am      1 UNK        -0.4739 
      5 CA        -80.9056   27.0106  -70.5496 C.3       1 UNK         0.0864 
      6 C6        -79.7754   27.9095  -71.1200 C.3       11 UNK        -0.0881 
      7 S7        -79.9173   29.6498  -70.5912 S.3       11 UNK        -0.2682 
      8 C8        -80.8913   30.3745  -71.9521 C.3       11 UNK         0.0289 
      9 C9        -80.1509   30.4058  -73.2857 C.ar      11 UNK        -0.0687 
     10 C10       -80.7866   29.9579  -74.4487 C.ar      11 UNK        -0.0823 
     11 C11       -80.1417   30.0310  -75.6880 C.ar      11 UNK        -0.0830 
     12 C12       -78.8449   30.5475  -75.7564 C.ar      11 UNK        -0.1021 
     13 C13       -78.1874   30.9717  -74.5983 C.ar      11 UNK        -0.0753 
     14 C14       -78.8502   30.9134  -73.3696 C.ar      11 UNK        -0.0933 
     15 C15       -76.7617   31.4955  -74.6778 C.3       11 UNK         0.0166 
     16 S16       -75.5959   30.1860  -75.1639 S.3       11 UNK        -0.2615 
     17 C17       -75.6039   29.0856  -73.7049 C.3       11 UNK        -0.0865 
     18 CA        -74.2191   29.0166  -73.0090 C.3       10 UNK         0.0862 
     19 C         -74.2863   28.1457  -71.7188 C.2       10 UNK         0.5551 
     20 N         -73.5676   27.0324  -71.6179 N.am      10 UNK        -0.7319 
     21 O         -75.0018   28.4970  -70.7846 O.2       10 UNK        -0.5018 
     22 N         -73.1651   28.6206  -73.9542 N.am      10 UNK        -0.4509 
     23 C         -71.8522   28.8126  -73.7813 C.2       10 UNK         0.4899 
     24 O         -71.3695   29.4361  -72.8346 O.2       10 UNK        -0.4839 
     25 CA        -70.9300   28.1914  -74.8510 C.3       9 UNK         0.0222 
     26 CB        -69.4994   27.9381  -74.3299 C.3       9 UNK        -0.1966 
     27 N         -71.4851   26.9742  -75.4641 N.am      9 UNK        -0.4218 
     28 C         -71.8234   25.8330  -74.8386 C.2       9 UNK         0.5020 
     29 O         -71.7006   25.6696  -73.6232 O.2       9 UNK        -0.5274 
     30 CA        -72.4434   24.6979  -75.6797 C.3       8 UNK         0.0270 
     31 CB        -73.6524   24.0737  -74.9625 C.3       8 UNK        -0.1976 
     32 N         -72.8526   25.1299  -77.0209 N.am      8 UNK        -0.4313 
     33 C         -72.0467   25.1266  -78.0926 C.2       8 UNK         0.5041 
     34 O         -70.8903   24.7038  -78.0739 O.2       8 UNK        -0.5577 
     35 CA        -72.5935   25.7373  -79.3947 C.3       7 UNK         0.0284 
     36 CB        -73.3136   24.6776  -80.2409 C.3       7 UNK        -0.1958 
     37 N         -73.4817   26.8846  -79.1917 N.am      7 UNK        -0.4454 
     38 C         -73.1435   28.0441  -78.6152 C.2       7 UNK         0.5089 
     39 O         -72.0356   28.2596  -78.1243 O.2       7 UNK        -0.5125 
     40 CA        -74.2191   29.1444  -78.5495 C.3       6 UNK         0.0408 
     41 CB        -74.3328   29.8960  -79.8894 C.3       6 UNK        -0.1791 
     42 N         -75.5294   28.6841  -78.0669 N.am      6 UNK        -0.4762 
     43 C         -76.3867   27.8318  -78.6453 C.2       6 UNK         0.5007 
     44 O         -76.2103   27.3245  -79.7562 O.2       6 UNK        -0.5032 
     45 CA        -77.6427   27.4552  -77.8337 C.3       5 UNK         0.0783 
     46 C46       -78.8863   28.1620  -78.4260 C.3       11 UNK        -0.0857 
     47 S47       -80.3965   27.8847  -77.4371 S.3       11 UNK        -0.2512 
     48 C48       -80.8604   29.5787  -76.9516 C.3       11 UNK         0.0225 
     49 N         -77.8191   25.9987  -77.7918 N.am      5 UNK        -0.4615 
     50 C         -76.9249   25.1093  -77.3421 C.2       4 UNK         0.5053 
     51 O         -75.8227   25.4083  -76.8755 O.2       4 UNK        -0.5105 
     52 CA        -77.3088   23.6294  -77.4906 C.3       4 UNK         0.0263 
     53 CB        -76.4432   22.9485  -78.5618 C.3       4 UNK        -0.1981 
     54 N         -77.1614   22.9042  -76.2300 N.am      4 UNK        -0.4224 
     55 C         -78.0293   22.9636  -75.2124 C.2       3 UNK         0.4895 
     56 O         -79.0619   23.6377  -75.2408 O.2       3 UNK        -0.5091 
     57 CA        -77.7267   22.0499  -74.0048 C.3       3 UNK         0.0250 
     58 CB        -76.2411   22.0731  -73.5791 C.3       3 UNK        -0.1996 
     59 N         -78.6052   22.2992  -72.8534 N.am      3 UNK        -0.4254 
     60 C         -78.6549   23.3995  -72.0883 C.2       2 UNK         0.5004 
     61 O         -77.9109   24.3758  -72.2174 O.2       2 UNK        -0.5226 
     62 CA        -79.6881   23.3675  -70.9476 C.3       2 UNK         0.0269 
     63 CB        -79.1524   22.5586  -69.7539 C.3       2 UNK        -0.1926 
     64 N         -80.0157   24.7148  -70.4848 N.am      2 UNK        -0.4687 
     65 C         -80.8043   25.5824  -71.1272 C.2       1 UNK         0.5165 
     66 O         -81.4542   25.2913  -72.1325 O.2       1 UNK        -0.5079 
     67 H67       -80.4626   25.9952  -66.1624 H         1 UNK         0.0900 
     68 H68       -81.5651   27.3027  -66.5987 H         1 UNK         0.0900 
     69 H69       -79.8844   27.6633  -66.2006 H         1 UNK         0.0900 
     70 H70       -81.9561   27.3526  -68.7668 H         1 UNK         0.2959 
     71 H71       -81.8480   27.4089  -70.9297 H         1 UNK         0.1079 
     72 H72       -78.7967   27.5421  -70.8058 H         1 UNK         0.0837 
     73 H73       -79.7660   27.8684  -72.2110 H         1 UNK         0.0837 
     74 H74       -81.8302   29.8259  -72.0402 H         1 UNK         0.0685 
     75 H75       -81.1576   31.3970  -71.6817 H         1 UNK         0.0685 
     76 H76       -81.7936   29.5669  -74.3933 H         1 UNK         0.1434 
     77 H77       -78.3374   30.6144  -76.7080 H         1 UNK         0.1329 
     78 H78       -78.3530   31.2596  -72.4739 H         1 UNK         0.1335 
     79 H79       -76.7168   32.2998  -75.4134 H         1 UNK         0.0680 
     80 H80       -76.4437   31.9277  -73.7276 H         1 UNK         0.0680 
     81 H81       -76.3650   29.4238  -72.9994 H         1 UNK         0.1032 
     82 H82       -75.9191   28.0913  -74.0276 H         1 UNK         0.1032 
     83 H83       -73.9798   30.0264  -72.6699 H         1 UNK         0.0461 
     84 H84       -72.9567   26.7293  -72.3677 H         1 UNK         0.3453 
     85 H85       -73.6257   26.4885  -70.7723 H         1 UNK         0.3453 
     86 H86       -73.4698   28.1039  -74.7642 H         1 UNK         0.2984 
     87 H87       -70.8617   28.9285  -75.6521 H         1 UNK         0.0554 
     88 H88       -68.8638   27.5125  -75.1064 H         1 UNK         0.0847 
     89 H89       -69.4930   27.2558  -73.4793 H         1 UNK         0.0847 
     90 H90       -69.0305   28.8672  -74.0036 H         1 UNK         0.0847 
     91 H91       -71.6417   27.0384  -76.4645 H         1 UNK         0.3141 
     92 H92       -71.6814   23.9211  -75.7706 H         1 UNK         0.0743 
     93 H93       -74.4093   24.8208  -74.7205 H         1 UNK         0.0784 
     94 H94       -74.1213   23.3054  -75.5764 H         1 UNK         0.0784 
     95 H95       -73.3527   23.6015  -74.0261 H         1 UNK         0.0784 
     96 H96       -73.8116   25.4552  -77.1168 H         1 UNK         0.3213 
     97 H97       -71.7326   26.0938  -79.9645 H         1 UNK         0.0855 
     98 H98       -74.2374   24.3498  -79.7678 H         1 UNK         0.0814 
     99 H99       -72.6867   23.7967  -80.3869 H         1 UNK         0.0814 
    100 H100      -73.5643   25.0638  -81.2290 H         1 UNK         0.0814 
    101 H101      -74.4330   26.8112  -79.5458 H         1 UNK         0.3105 
    102 H102      -73.8759   29.8659  -77.8062 H         1 UNK         0.0547 
    103 H103      -73.3706   30.3220  -80.1766 H         1 UNK         0.0837 
    104 H104      -74.6508   29.2441  -80.7032 H         1 UNK         0.0837 
    105 H105      -75.0435   30.7194  -79.8221 H         1 UNK         0.0837 
    106 H106      -75.7606   29.0280  -77.1420 H         1 UNK         0.3020 
    107 H107      -77.5068   27.7919  -76.8032 H         1 UNK         0.1245 
    108 H108      -79.0804   27.8030  -79.4389 H         1 UNK         0.0781 
    109 H109      -78.7082   29.2336  -78.5255 H         1 UNK         0.0781 
    110 H110      -81.9395   29.6048  -76.7923 H         1 UNK         0.0836 
    111 H111      -80.6677   30.2751  -77.7689 H         1 UNK         0.0836 
    112 H112      -78.6951   25.6606  -78.1616 H         1 UNK         0.3022 
    113 H113      -78.3517   23.5618  -77.8089 H         1 UNK         0.0747 
    114 H114      -76.5185   23.4727  -79.5156 H         1 UNK         0.0793 
    115 H115      -75.3909   22.9287  -78.2757 H         1 UNK         0.0793 
    116 H116      -76.7618   21.9202  -78.7336 H         1 UNK         0.0793 
    117 H117      -76.3296   22.3427  -76.1285 H         1 UNK         0.3047 
    118 H118      -77.9575   21.0354  -74.3333 H         1 UNK         0.0822 
    119 H119      -76.0790   21.4791  -72.6796 H         1 UNK         0.0807 
    120 H120      -75.8955   23.0864  -73.3725 H         1 UNK         0.0807 
    121 H121      -75.5950   21.6550  -74.3509 H         1 UNK         0.0807 
    122 H122      -79.2740   21.5655  -72.6647 H         1 UNK         0.2946 
    123 H123      -80.6012   22.8950  -71.3175 H         1 UNK         0.1144 
    124 H124      -78.2379   22.9959  -69.3507 H         1 UNK         0.0793 
    125 H125      -78.9232   21.5321  -70.0429 H         1 UNK         0.0793 
    126 H126      -79.8841   22.5106  -68.9471 H         1 UNK         0.0793 
    127 H127      -79.4855   25.0767  -69.6962 H         1 UNK         0.2896 
@<TRIPOS>BOND
     1    1    2 1    
     2    1   67 1    
     3    1   68 1    
     4    1   69 1    
     5    2    3 2    
     6    2    4 am   BACKBONE|DICT|INTERRES
     7    4    5 1    
     8    4   70 1    
     9    5    6 1    
    10    5   65 1    
    11    5   71 1    
    12    6    7 1    
    13    6   72 1    
    14    6   73 1    
    15    7    8 1    
    16    8    9 1    
    17    8   74 1    
    18    8   75 1    
    19    9   10 ar   
    20    9   14 ar   
    21   10   11 ar   
    22   10   76 1    
    23   11   12 ar   
    24   11   48 1    
    25   12   13 ar   
    26   12   77 1    
    27   13   14 ar   
    28   13   15 1    
    29   14   78 1    
    30   15   16 1    
    31   15   79 1    
    32   15   80 1    
    33   16   17 1    
    34   17   18 1    
    35   17   81 1    
    36   17   82 1    
    37   18   19 1    
    38   18   22 1    
    39   18   83 1    
    40   19   20 am   BACKBONE|DICT|INTERRES
    41   19   21 2    
    42   20   84 1    
    43   20   85 1    
    44   22   23 am   BACKBONE|DICT|INTERRES
    45   22   86 1    
    46   23   24 2    
    47   23   25 1    
    48   25   26 1    
    49   25   27 1    
    50   25   87 1    
    51   26   88 1    
    52   26   89 1    
    53   26   90 1    
    54   27   28 am   BACKBONE|DICT|INTERRES
    55   27   91 1    
    56   28   29 2    
    57   28   30 1    
    58   30   31 1    
    59   30   32 1    
    60   30   92 1    
    61   31   93 1    
    62   31   94 1    
    63   31   95 1    
    64   32   33 am   BACKBONE|DICT|INTERRES
    65   32   96 1    
    66   33   34 2    
    67   33   35 1    
    68   35   36 1    
    69   35   37 1    
    70   35   97 1    
    71   36   98 1    
    72   36   99 1    
    73   36  100 1    
    74   37   38 am   BACKBONE|DICT|INTERRES
    75   37  101 1    
    76   38   39 2    
    77   38   40 1    
    78   40   41 1    
    79   40   42 1    
    80   40  102 1    
    81   41  103 1    
    82   41  104 1    
    83   41  105 1    
    84   42   43 am   BACKBONE|DICT|INTERRES
    85   42  106 1    
    86   43   44 2    
    87   43   45 1    
    88   45   46 1    
    89   45   49 1    
    90   45  107 1    
    91   46   47 1    
    92   46  108 1    
    93   46  109 1    
    94   47   48 1    
    95   48  110 1    
    96   48  111 1    
    97   49   50 am   BACKBONE|DICT|INTERRES
    98   49  112 1    
    99   50   51 2    
   100   50   52 1    
   101   52   53 1    
   102   52   54 1    
   103   52  113 1    
   104   53  114 1    
   105   53  115 1    
   106   53  116 1    
   107   54   55 am   BACKBONE|DICT|INTERRES
   108   54  117 1    
   109   55   56 2    
   110   55   57 1    
   111   57   58 1    
   112   57   59 1    
   113   57  118 1    
   114   58  119 1    
   115   58  120 1    
   116   58  121 1    
   117   59   60 am   BACKBONE|DICT|INTERRES
   118   59  122 1    
   119   60   61 2    
   120   60   62 1    
   121   62   63 1    
   122   62   64 1    
   123   62  123 1    
   124   63  124 1    
   125   63  125 1    
   126   63  126 1    
   127   64   65 am   BACKBONE|DICT|INTERRES
   128   64  127 1    
   129   65   66 2    
@<TRIPOS>SUBSTRUCTURE
     1 UNK         1 GROUP             0       ****    0 ROOT    
