@<TRIPOS>MOLECULE
3R135
127   129    1
SMALL
USER_CHARGES


@<TRIPOS>ATOM
      1 CA        -77.5415   25.6504  -71.8820 C.3       0 UNK        -0.1998 
      2 C         -79.0007   25.3247  -71.6157 C.2       0 UNK         0.4909 
      3 O         -79.3600   24.1496  -71.5290 O.2       0 UNK        -0.5240 
      4 N         -79.8440   26.3570  -71.4812 N.am      1 UNK        -0.4739 
      5 CA        -81.2887   26.2460  -71.2481 C.3       1 UNK         0.0864 
      6 C6        -81.9454   27.6104  -70.9091 C.3       11 UNK        -0.0881 
      7 S7        -81.2344   28.4008  -69.4229 S.3       11 UNK        -0.2682 
      8 C8        -80.5276   29.9403  -70.0989 C.3       11 UNK         0.0289 
      9 C9        -79.3099   29.6640  -70.9673 C.ar      11 UNK        -0.0687 
     10 C10       -79.4308   29.6181  -72.3584 C.ar      11 UNK        -0.0823 
     11 C11       -78.3294   29.2945  -73.1528 C.ar      11 UNK        -0.0830 
     12 C12       -77.0978   29.0316  -72.5445 C.ar      11 UNK        -0.1021 
     13 C13       -76.9452   29.1246  -71.1550 C.ar      11 UNK        -0.0753 
     14 C14       -78.0642   29.4347  -70.3760 C.ar      11 UNK        -0.0933 
     15 C15       -75.6181   28.8545  -70.4404 C.3       11 UNK         0.0166 
     16 S16       -74.1451   28.6737  -71.5074 S.3       11 UNK        -0.2615 
     17 C17       -73.8002   30.4012  -71.9983 C.3       11 UNK        -0.0865 
     18 CA        -73.8669   30.6446  -73.5369 C.3       10 UNK         0.0862 
     19 C         -73.6628   32.1430  -73.9157 C.2       10 UNK         0.5551 
     20 N         -73.0825   32.4580  -75.0677 N.am      10 UNK        -0.7319 
     21 O         -74.0577   33.0368  -73.1707 O.2       10 UNK        -0.5018 
     22 N         -73.0516   29.7001  -74.3240 N.am      10 UNK        -0.4509 
     23 C         -71.7240   29.5330  -74.2422 C.2       10 UNK         0.4899 
     24 O         -70.9880   30.1791  -73.4944 O.2       10 UNK        -0.4839 
     25 CA        -71.1315   28.4553  -75.1696 C.3       9 UNK         0.0222 
     26 CB        -69.6462   28.1432  -74.8877 C.3       9 UNK        -0.1966 
     27 N         -71.9501   27.2382  -75.1779 N.am      9 UNK        -0.4218 
     28 C         -72.1698   26.3802  -74.1690 C.2       9 UNK         0.5020 
     29 O         -71.6115   26.4353  -73.0729 O.2       9 UNK        -0.5274 
     30 CA        -73.1973   25.2606  -74.4269 C.3       8 UNK         0.0270 
     31 CB        -74.5789   25.6682  -73.8893 C.3       8 UNK        -0.1976 
     32 N         -73.3245   24.9024  -75.8420 N.am      8 UNK        -0.4313 
     33 C         -72.3735   24.2981  -76.5688 C.2       8 UNK         0.5041 
     34 O         -71.3000   23.9055  -76.1106 O.2       8 UNK        -0.5577 
     35 CA        -72.6612   24.1326  -78.0680 C.3       7 UNK         0.0284 
     36 CB        -73.5542   22.9069  -78.3214 C.3       7 UNK        -0.1958 
     37 N         -73.2872   25.3345  -78.6262 N.am      7 UNK        -0.4454 
     38 C         -72.6197   26.4542  -78.9424 C.2       7 UNK         0.5089 
     39 O         -71.3984   26.5731  -78.8480 O.2       7 UNK        -0.5125 
     40 CA        -73.4512   27.6519  -79.4367 C.3       6 UNK         0.0408 
     41 CB        -73.5874   27.6152  -80.9669 C.3       6 UNK        -0.1791 
     42 N         -74.7832   27.7155  -78.8308 N.am      6 UNK        -0.4762 
     43 C         -75.0204   28.0326  -77.5498 C.2       6 UNK         0.5007 
     44 O         -74.1417   28.3467  -76.7460 O.2       6 UNK        -0.5032 
     45 CA        -76.4786   27.9194  -77.0676 C.3       5 UNK         0.0783 
     46 C46       -77.2443   29.2673  -77.1569 C.3       11 UNK        -0.0857 
     47 S47       -77.2341   30.1484  -75.5666 S.3       11 UNK        -0.2512 
     48 C48       -78.4848   29.1748  -74.6619 C.3       11 UNK         0.0225 
     49 N         -77.2268   26.8325  -77.7063 N.am      5 UNK        -0.4615 
     50 C         -76.9413   25.5341  -77.5632 C.2       4 UNK         0.5053 
     51 O         -75.9217   25.1107  -77.0143 O.2       4 UNK        -0.5105 
     52 CA        -77.9685   24.5422  -78.1281 C.3       4 UNK         0.0263 
     53 CB        -77.3906   23.7888  -79.3369 C.3       4 UNK        -0.1981 
     54 N         -78.3976   23.5827  -77.1078 N.am      4 UNK        -0.4224 
     55 C         -79.0390   23.9047  -75.9750 C.2       3 UNK         0.4895 
     56 O         -79.3724   25.0538  -75.6733 O.2       3 UNK        -0.5091 
     57 CA        -79.3231   22.7426  -75.0086 C.3       3 UNK         0.0250 
     58 CB        -78.0701   22.4185  -74.1781 C.3       3 UNK        -0.1996 
     59 N         -80.4383   23.0485  -74.1074 N.am      3 UNK        -0.4254 
     60 C         -81.7289   23.0317  -74.4753 C.2       2 UNK         0.5004 
     61 O         -82.1113   22.6875  -75.5950 O.2       2 UNK        -0.5226 
     62 CA        -82.7829   23.4421  -73.4290 C.3       2 UNK         0.0269 
     63 CB        -83.4434   22.1958  -72.8162 C.3       2 UNK        -0.1926 
     64 N         -82.2379   24.2704  -72.3512 N.am      2 UNK        -0.4687 
     65 C         -81.9786   25.5803  -72.4583 C.2       1 UNK         0.5165 
     66 O         -82.2392   26.2498  -73.4599 O.2       1 UNK        -0.5079 
     67 H67       -77.1598   26.3366  -71.1289 H         1 UNK         0.0900 
     68 H68       -77.4274   26.1043  -72.8661 H         1 UNK         0.0900 
     69 H69       -76.9304   24.7491  -71.8473 H         1 UNK         0.0900 
     70 H70       -79.4894   27.3016  -71.5550 H         1 UNK         0.2959 
     71 H71       -81.4278   25.5960  -70.3811 H         1 UNK         0.1079 
     72 H72       -81.8845   28.2932  -71.7571 H         1 UNK         0.0837 
     73 H73       -83.0120   27.4723  -70.7213 H         1 UNK         0.0837 
     74 H74       -80.2433   30.5906  -69.2703 H         1 UNK         0.0685 
     75 H75       -81.2923   30.4800  -70.6599 H         1 UNK         0.0685 
     76 H76       -80.3901   29.8065  -72.8211 H         1 UNK         0.1434 
     77 H77       -76.2642   28.7469  -73.1685 H         1 UNK         0.1329 
     78 H78       -77.9717   29.4776  -69.2990 H         1 UNK         0.1335 
     79 H79       -75.4279   29.6463  -69.7142 H         1 UNK         0.0680 
     80 H80       -75.7245   27.9346  -69.8644 H         1 UNK         0.0680 
     81 H81       -72.8165   30.6735  -71.6131 H         1 UNK         0.1032 
     82 H82       -74.5079   31.0566  -71.4877 H         1 UNK         0.1032 
     83 H83       -74.8912   30.4415  -73.8407 H         1 UNK         0.0461 
     84 H84       -72.9607   33.4279  -75.3125 H         1 UNK         0.3453 
     85 H85       -72.7680   31.7335  -75.6925 H         1 UNK         0.3453 
     86 H86       -73.5538   29.1593  -75.0209 H         1 UNK         0.2984 
     87 H87       -71.1916   28.8598  -76.1810 H         1 UNK         0.0554 
     88 H88       -69.2677   27.3757  -75.5628 H         1 UNK         0.0847 
     89 H89       -69.4881   27.7997  -73.8651 H         1 UNK         0.0847 
     90 H90       -69.0295   29.0317  -75.0279 H         1 UNK         0.0847 
     91 H91       -72.5247   27.1247  -76.0038 H         1 UNK         0.3141 
     92 H92       -72.8650   24.3729  -73.8847 H         1 UNK         0.0743 
     93 H93       -74.9438   26.5788  -74.3648 H         1 UNK         0.0784 
     94 H94       -75.3179   24.8834  -74.0528 H         1 UNK         0.0784 
     95 H95       -74.5364   25.8579  -72.8160 H         1 UNK         0.0784 
     96 H96       -74.2161   25.1083  -76.2897 H         1 UNK         0.3213 
     97 H97       -71.7094   23.9668  -78.5780 H         1 UNK         0.0855 
     98 H98       -74.5004   22.9727  -77.7842 H         1 UNK         0.0814 
     99 H99       -73.0587   21.9941  -77.9883 H         1 UNK         0.0814 
    100 H100      -73.7749   22.7865  -79.3821 H         1 UNK         0.0814 
    101 H101      -74.2959   25.3398  -78.6812 H         1 UNK         0.3105 
    102 H102      -72.9119   28.5625  -79.1663 H         1 UNK         0.0547 
    103 H103      -72.6068   27.5936  -81.4445 H         1 UNK         0.0837 
    104 H104      -74.1332   26.7336  -81.3054 H         1 UNK         0.0837 
    105 H105      -74.1074   28.4973  -81.3408 H         1 UNK         0.0837 
    106 H106      -75.5684   27.4689  -79.4165 H         1 UNK         0.3020 
    107 H107      -76.4015   27.6260  -76.0186 H         1 UNK         0.1245 
    108 H108      -76.8351   29.9226  -77.9288 H         1 UNK         0.0781 
    109 H109      -78.2887   29.1144  -77.4349 H         1 UNK         0.0781 
    110 H110      -79.4757   29.5016  -74.9813 H         1 UNK         0.0836 
    111 H111      -78.4136   28.1186  -74.9249 H         1 UNK         0.0836 
    112 H112      -78.0785   27.0927  -78.1822 H         1 UNK         0.3022 
    113 H113      -78.8523   25.0926  -78.4577 H         1 UNK         0.0747 
    114 H114      -78.1380   23.1383  -79.7916 H         1 UNK         0.0793 
    115 H115      -77.0563   24.4833  -80.1089 H         1 UNK         0.0793 
    116 H116      -76.5357   23.1717  -79.0605 H         1 UNK         0.0793 
    117 H117      -78.1291   22.6209  -77.2566 H         1 UNK         0.3047 
    118 H118      -79.5879   21.8594  -75.5943 H         1 UNK         0.0822 
    119 H119      -78.2623   21.6215  -73.4596 H         1 UNK         0.0807 
    120 H120      -77.7173   23.2892  -73.6268 H         1 UNK         0.0807 
    121 H121      -77.2497   22.0886  -74.8167 H         1 UNK         0.0807 
    122 H122      -80.1952   23.3865  -73.1812 H         1 UNK         0.2946 
    123 H123      -83.5527   24.0128  -73.9543 H         1 UNK         0.1144 
    124 H124      -83.8868   21.5683  -73.5907 H         1 UNK         0.0793 
    125 H125      -84.2423   22.4684  -72.1264 H         1 UNK         0.0793 
    126 H126      -82.7233   21.5827  -72.2727 H         1 UNK         0.0793 
    127 H127      -81.9406   23.7862  -71.5150 H         1 UNK         0.2896 
@<TRIPOS>BOND
     1    1    2 1    
     2    1   67 1    
     3    1   68 1    
     4    1   69 1    
     5    2    3 2    
     6    2    4 am   BACKBONE|DICT|INTERRES
     7    4    5 1    
     8    4   70 1    
     9    5    6 1    
    10    5   65 1    
    11    5   71 1    
    12    6    7 1    
    13    6   72 1    
    14    6   73 1    
    15    7    8 1    
    16    8    9 1    
    17    8   74 1    
    18    8   75 1    
    19    9   10 ar   
    20    9   14 ar   
    21   10   11 ar   
    22   10   76 1    
    23   11   12 ar   
    24   11   48 1    
    25   12   13 ar   
    26   12   77 1    
    27   13   14 ar   
    28   13   15 1    
    29   14   78 1    
    30   15   16 1    
    31   15   79 1    
    32   15   80 1    
    33   16   17 1    
    34   17   18 1    
    35   17   81 1    
    36   17   82 1    
    37   18   19 1    
    38   18   22 1    
    39   18   83 1    
    40   19   20 am   BACKBONE|DICT|INTERRES
    41   19   21 2    
    42   20   84 1    
    43   20   85 1    
    44   22   23 am   BACKBONE|DICT|INTERRES
    45   22   86 1    
    46   23   24 2    
    47   23   25 1    
    48   25   26 1    
    49   25   27 1    
    50   25   87 1    
    51   26   88 1    
    52   26   89 1    
    53   26   90 1    
    54   27   28 am   BACKBONE|DICT|INTERRES
    55   27   91 1    
    56   28   29 2    
    57   28   30 1    
    58   30   31 1    
    59   30   32 1    
    60   30   92 1    
    61   31   93 1    
    62   31   94 1    
    63   31   95 1    
    64   32   33 am   BACKBONE|DICT|INTERRES
    65   32   96 1    
    66   33   34 2    
    67   33   35 1    
    68   35   36 1    
    69   35   37 1    
    70   35   97 1    
    71   36   98 1    
    72   36   99 1    
    73   36  100 1    
    74   37   38 am   BACKBONE|DICT|INTERRES
    75   37  101 1    
    76   38   39 2    
    77   38   40 1    
    78   40   41 1    
    79   40   42 1    
    80   40  102 1    
    81   41  103 1    
    82   41  104 1    
    83   41  105 1    
    84   42   43 am   BACKBONE|DICT|INTERRES
    85   42  106 1    
    86   43   44 2    
    87   43   45 1    
    88   45   46 1    
    89   45   49 1    
    90   45  107 1    
    91   46   47 1    
    92   46  108 1    
    93   46  109 1    
    94   47   48 1    
    95   48  110 1    
    96   48  111 1    
    97   49   50 am   BACKBONE|DICT|INTERRES
    98   49  112 1    
    99   50   51 2    
   100   50   52 1    
   101   52   53 1    
   102   52   54 1    
   103   52  113 1    
   104   53  114 1    
   105   53  115 1    
   106   53  116 1    
   107   54   55 am   BACKBONE|DICT|INTERRES
   108   54  117 1    
   109   55   56 2    
   110   55   57 1    
   111   57   58 1    
   112   57   59 1    
   113   57  118 1    
   114   58  119 1    
   115   58  120 1    
   116   58  121 1    
   117   59   60 am   BACKBONE|DICT|INTERRES
   118   59  122 1    
   119   60   61 2    
   120   60   62 1    
   121   62   63 1    
   122   62   64 1    
   123   62  123 1    
   124   63  124 1    
   125   63  125 1    
   126   63  126 1    
   127   64   65 am   BACKBONE|DICT|INTERRES
   128   64  127 1    
   129   65   66 2    
@<TRIPOS>SUBSTRUCTURE
     1 UNK         1 GROUP             0       ****    0 ROOT    
