@<TRIPOS>MOLECULE
3R135
127   129    1
SMALL
USER_CHARGES


@<TRIPOS>ATOM
      1 CA        -82.8282   27.5372  -70.2433 C.3       0 UNK        -0.1998 
      2 C         -83.3605   27.2321  -71.6354 C.2       0 UNK         0.4909 
      3 O         -84.2880   26.4353  -71.7780 O.2       0 UNK        -0.5240 
      4 N         -82.7763   27.8597  -72.6643 N.am      1 UNK        -0.4739 
      5 CA        -83.1260   27.6748  -74.0796 C.3       1 UNK         0.0864 
      6 C6        -82.6386   28.8661  -74.9461 C.3       11 UNK        -0.0881 
      7 S7        -80.8222   29.0514  -75.0061 S.3       11 UNK        -0.2682 
      8 C8        -80.5106   30.2618  -73.6818 C.3       11 UNK         0.0289 
      9 C9        -79.2437   29.9339  -72.9009 C.ar      11 UNK        -0.0687 
     10 C10       -79.1429   28.7316  -72.1932 C.ar      11 UNK        -0.0823 
     11 C11       -78.0084   28.4441  -71.4302 C.ar      11 UNK        -0.0830 
     12 C12       -76.9669   29.3731  -71.3700 C.ar      11 UNK        -0.1021 
     13 C13       -77.0483   30.5749  -72.0803 C.ar      11 UNK        -0.0753 
     14 C14       -78.1859   30.8471  -72.8483 C.ar      11 UNK        -0.0933 
     15 C15       -75.9234   31.5959  -71.9938 C.3       11 UNK         0.0166 
     16 S16       -74.5917   31.2358  -73.1785 S.3       11 UNK        -0.2615 
     17 C17       -73.6940   29.8972  -72.3179 C.3       11 UNK        -0.0865 
     18 CA        -72.2368   29.7374  -72.8268 C.3       10 UNK         0.0862 
     19 C         -71.4295   28.7051  -71.9855 C.2       10 UNK         0.5551 
     20 N         -70.6379   27.8225  -72.5857 N.am      10 UNK        -0.7319 
     21 O         -71.5070   28.7138  -70.7594 O.2       10 UNK        -0.5018 
     22 N         -72.2091   29.4399  -74.2649 N.am      10 UNK        -0.4509 
     23 C         -71.4337   30.0465  -75.1692 C.2       10 UNK         0.4899 
     24 O         -70.6676   30.9756  -74.9067 O.2       10 UNK        -0.4839 
     25 CA        -71.5333   29.5150  -76.6121 C.3       9 UNK         0.0222 
     26 CB        -70.3609   29.9742  -77.5052 C.3       9 UNK        -0.1966 
     27 N         -71.6990   28.0578  -76.6845 N.am      9 UNK        -0.4218 
     28 C         -70.8647   27.1162  -76.2129 C.2       9 UNK         0.5020 
     29 O         -69.8291   27.3783  -75.5987 O.2       9 UNK        -0.5274 
     30 CA        -71.2405   25.6334  -76.4265 C.3       8 UNK         0.0270 
     31 CB        -71.1196   24.8398  -75.1128 C.3       8 UNK        -0.1976 
     32 N         -72.5866   25.4367  -76.9689 N.am      8 UNK        -0.4313 
     33 C         -72.9524   25.6054  -78.2462 C.2       8 UNK         0.5041 
     34 O         -72.1646   25.8621  -79.1564 O.2       8 UNK        -0.5577 
     35 CA        -74.4619   25.5502  -78.5414 C.3       7 UNK         0.0284 
     36 CB        -74.9155   24.1124  -78.8370 C.3       7 UNK        -0.1958 
     37 N         -75.2665   26.1208  -77.4534 N.am      7 UNK        -0.4454 
     38 C         -75.2736   27.4213  -77.1215 C.2       7 UNK         0.5089 
     39 O         -74.6350   28.2812  -77.7274 O.2       7 UNK        -0.5125 
     40 CA        -76.0872   27.8256  -75.8801 C.3       6 UNK         0.0408 
     41 CB        -77.5386   28.1387  -76.2552 C.3       6 UNK        -0.1791 
     42 N         -76.0637   26.8112  -74.8244 N.am      6 UNK        -0.4762 
     43 C         -74.9700   26.5149  -74.1083 C.2       6 UNK         0.5007 
     44 O         -73.8859   27.0794  -74.2589 O.2       6 UNK        -0.5032 
     45 CA        -75.0797   25.3433  -73.1139 C.3       5 UNK         0.0783 
     46 C46       -75.7080   25.7655  -71.7588 C.3       11 UNK        -0.0857 
     47 S47       -77.5370   25.7355  -71.7343 S.3       11 UNK        -0.2512 
     48 C48       -77.9332   27.1410  -70.6511 C.3       11 UNK         0.0225 
     49 N         -75.7466   24.1793  -73.7075 N.am      5 UNK        -0.4615 
     50 C         -75.2954   23.4917  -74.7635 C.2       4 UNK         0.5053 
     51 O         -74.2374   23.7384  -75.3381 O.2       4 UNK        -0.5105 
     52 CA        -76.2212   22.4139  -75.3261 C.3       4 UNK         0.0263 
     53 CB        -76.6905   21.4114  -74.2555 C.3       4 UNK        -0.1981 
     54 N         -77.3672   23.0881  -75.9240 N.am      4 UNK        -0.4224 
     55 C         -77.9312   22.8022  -77.1001 C.2       3 UNK         0.4895 
     56 O         -77.5726   21.8733  -77.8255 O.2       3 UNK        -0.5091 
     57 CA        -79.1022   23.7156  -77.5211 C.3       3 UNK         0.0250 
     58 CB        -79.7444   23.2828  -78.8523 C.3       3 UNK        -0.1996 
     59 N         -80.1427   23.7873  -76.4894 N.am      3 UNK        -0.4254 
     60 C         -80.0641   24.4946  -75.3549 C.2       2 UNK         0.5004 
     61 O         -79.0917   25.1937  -75.0526 O.2       2 UNK        -0.5226 
     62 CA        -81.2181   24.3224  -74.3591 C.3       2 UNK         0.0269 
     63 CB        -80.7385   23.5702  -73.1067 C.3       2 UNK        -0.1926 
     64 N         -81.7549   25.6204  -73.9622 N.am      2 UNK        -0.4687 
     65 C         -82.6751   26.3091  -74.6526 C.2       1 UNK         0.5165 
     66 O         -83.1807   25.8996  -75.6993 O.2       1 UNK        -0.5079 
     67 H67       -82.4537   26.6260  -69.7774 H         1 UNK         0.0900 
     68 H68       -82.0170   28.2649  -70.2652 H         1 UNK         0.0900 
     69 H69       -83.6250   27.9374  -69.6169 H         1 UNK         0.0900 
     70 H70       -82.0324   28.5173  -72.4887 H         1 UNK         0.2959 
     71 H71       -84.2170   27.6674  -74.1385 H         1 UNK         0.1079 
     72 H72       -83.0866   29.7954  -74.5909 H         1 UNK         0.0837 
     73 H73       -82.9964   28.7507  -75.9710 H         1 UNK         0.0837 
     74 H74       -81.3484   30.2943  -72.9851 H         1 UNK         0.0685 
     75 H75       -80.4490   31.2554  -74.1282 H         1 UNK         0.0685 
     76 H76       -79.9461   28.0112  -72.2362 H         1 UNK         0.1434 
     77 H77       -76.0952   29.1642  -70.7658 H         1 UNK         0.1329 
     78 H78       -78.2540   31.7805  -73.3903 H         1 UNK         0.1335 
     79 H79       -75.5240   31.6370  -70.9794 H         1 UNK         0.0680 
     80 H80       -76.3112   32.5940  -72.2033 H         1 UNK         0.0680 
     81 H81       -74.2489   28.9675  -72.4419 H         1 UNK         0.1032 
     82 H82       -73.6955   30.1150  -71.2485 H         1 UNK         0.1032 
     83 H83       -71.7365   30.6910  -72.6499 H         1 UNK         0.0461 
     84 H84       -70.1169   27.1688  -72.0239 H         1 UNK         0.3453 
     85 H85       -70.5260   27.8249  -73.5914 H         1 UNK         0.3453 
     86 H86       -72.7821   28.6486  -74.5444 H         1 UNK         0.2984 
     87 H87       -72.4475   29.9426  -77.0259 H         1 UNK         0.0554 
     88 H88       -70.3141   31.0624  -77.5618 H         1 UNK         0.0847 
     89 H89       -70.4697   29.6032  -78.5243 H         1 UNK         0.0847 
     90 H90       -69.4007   29.6272  -77.1222 H         1 UNK         0.0847 
     91 H91       -72.5492   27.7498  -77.1400 H         1 UNK         0.3141 
     92 H92       -70.5207   25.2228  -77.1372 H         1 UNK         0.0743 
     93 H93       -70.1054   24.8853  -74.7142 H         1 UNK         0.0784 
     94 H94       -71.7897   25.2297  -74.3458 H         1 UNK         0.0784 
     95 H95       -71.3590   23.7867  -75.2617 H         1 UNK         0.0784 
     96 H96       -73.2938   25.1382  -76.3023 H         1 UNK         0.3213 
     97 H97       -74.6406   26.1493  -79.4372 H         1 UNK         0.0855 
     98 H98       -74.7855   23.4564  -77.9764 H         1 UNK         0.0814 
     99 H99       -74.3383   23.6852  -79.6581 H         1 UNK         0.0814 
    100 H100      -75.9641   24.0795  -79.1321 H         1 UNK         0.0814 
    101 H101      -75.7879   25.4786  -76.8771 H         1 UNK         0.3105 
    102 H102      -75.6428   28.7391  -75.4776 H         1 UNK         0.0547 
    103 H103      -78.0688   27.2591  -76.6216 H         1 UNK         0.0837 
    104 H104      -77.5906   28.9043  -77.0302 H         1 UNK         0.0837 
    105 H105      -78.0752   28.5188  -75.3878 H         1 UNK         0.0837 
    106 H106      -76.9313   26.3284  -74.6243 H         1 UNK         0.3020 
    107 H107      -74.0503   25.0404  -72.9072 H         1 UNK         0.1245 
    108 H108      -75.3440   26.7473  -71.4498 H         1 UNK         0.0781 
    109 H109      -75.3715   25.0765  -70.9827 H         1 UNK         0.0781 
    110 H110      -77.2050   27.2061  -69.8411 H         1 UNK         0.0836 
    111 H111      -78.8963   26.9523  -70.1745 H         1 UNK         0.0836 
    112 H112      -76.6350   23.9354  -73.2936 H         1 UNK         0.3022 
    113 H113      -75.6621   21.8696  -76.0906 H         1 UNK         0.0747 
    114 H114      -77.2601   20.5993  -74.7077 H         1 UNK         0.0793 
    115 H115      -75.8400   20.9619  -73.7412 H         1 UNK         0.0793 
    116 H116      -77.3255   21.8764  -73.5008 H         1 UNK         0.0793 
    117 H117      -77.7550   23.8774  -75.4125 H         1 UNK         0.3047 
    118 H118      -78.6885   24.7162  -77.6657 H         1 UNK         0.0822 
    119 H119      -80.5346   23.9708  -79.1539 H         1 UNK         0.0807 
    120 H120      -80.1755   22.2830  -78.7874 H         1 UNK         0.0807 
    121 H121      -79.0071   23.2689  -79.6563 H         1 UNK         0.0807 
    122 H122      -80.9566   23.2090  -76.6431 H         1 UNK         0.2946 
    123 H123      -82.0134   23.7348  -74.8240 H         1 UNK         0.1144 
    124 H124      -81.5577   23.4041  -72.4069 H         1 UNK         0.0793 
    125 H125      -79.9556   24.1171  -72.5805 H         1 UNK         0.0793 
    126 H126      -80.3325   22.5922  -73.3689 H         1 UNK         0.0793 
    127 H127      -81.3551   26.0461  -73.1402 H         1 UNK         0.2896 
@<TRIPOS>BOND
     1    1    2 1    
     2    1   67 1    
     3    1   68 1    
     4    1   69 1    
     5    2    3 2    
     6    2    4 am   BACKBONE|DICT|INTERRES
     7    4    5 1    
     8    4   70 1    
     9    5    6 1    
    10    5   65 1    
    11    5   71 1    
    12    6    7 1    
    13    6   72 1    
    14    6   73 1    
    15    7    8 1    
    16    8    9 1    
    17    8   74 1    
    18    8   75 1    
    19    9   10 ar   
    20    9   14 ar   
    21   10   11 ar   
    22   10   76 1    
    23   11   12 ar   
    24   11   48 1    
    25   12   13 ar   
    26   12   77 1    
    27   13   14 ar   
    28   13   15 1    
    29   14   78 1    
    30   15   16 1    
    31   15   79 1    
    32   15   80 1    
    33   16   17 1    
    34   17   18 1    
    35   17   81 1    
    36   17   82 1    
    37   18   19 1    
    38   18   22 1    
    39   18   83 1    
    40   19   20 am   BACKBONE|DICT|INTERRES
    41   19   21 2    
    42   20   84 1    
    43   20   85 1    
    44   22   23 am   BACKBONE|DICT|INTERRES
    45   22   86 1    
    46   23   24 2    
    47   23   25 1    
    48   25   26 1    
    49   25   27 1    
    50   25   87 1    
    51   26   88 1    
    52   26   89 1    
    53   26   90 1    
    54   27   28 am   BACKBONE|DICT|INTERRES
    55   27   91 1    
    56   28   29 2    
    57   28   30 1    
    58   30   31 1    
    59   30   32 1    
    60   30   92 1    
    61   31   93 1    
    62   31   94 1    
    63   31   95 1    
    64   32   33 am   BACKBONE|DICT|INTERRES
    65   32   96 1    
    66   33   34 2    
    67   33   35 1    
    68   35   36 1    
    69   35   37 1    
    70   35   97 1    
    71   36   98 1    
    72   36   99 1    
    73   36  100 1    
    74   37   38 am   BACKBONE|DICT|INTERRES
    75   37  101 1    
    76   38   39 2    
    77   38   40 1    
    78   40   41 1    
    79   40   42 1    
    80   40  102 1    
    81   41  103 1    
    82   41  104 1    
    83   41  105 1    
    84   42   43 am   BACKBONE|DICT|INTERRES
    85   42  106 1    
    86   43   44 2    
    87   43   45 1    
    88   45   46 1    
    89   45   49 1    
    90   45  107 1    
    91   46   47 1    
    92   46  108 1    
    93   46  109 1    
    94   47   48 1    
    95   48  110 1    
    96   48  111 1    
    97   49   50 am   BACKBONE|DICT|INTERRES
    98   49  112 1    
    99   50   51 2    
   100   50   52 1    
   101   52   53 1    
   102   52   54 1    
   103   52  113 1    
   104   53  114 1    
   105   53  115 1    
   106   53  116 1    
   107   54   55 am   BACKBONE|DICT|INTERRES
   108   54  117 1    
   109   55   56 2    
   110   55   57 1    
   111   57   58 1    
   112   57   59 1    
   113   57  118 1    
   114   58  119 1    
   115   58  120 1    
   116   58  121 1    
   117   59   60 am   BACKBONE|DICT|INTERRES
   118   59  122 1    
   119   60   61 2    
   120   60   62 1    
   121   62   63 1    
   122   62   64 1    
   123   62  123 1    
   124   63  124 1    
   125   63  125 1    
   126   63  126 1    
   127   64   65 am   BACKBONE|DICT|INTERRES
   128   64  127 1    
   129   65   66 2    
@<TRIPOS>SUBSTRUCTURE
     1 UNK         1 GROUP             0       ****    0 ROOT    
