@<TRIPOS>MOLECULE
3R135
127   129    1
SMALL
USER_CHARGES


@<TRIPOS>ATOM
      1 CA        -85.4384   27.4159  -74.8163 C.3       0 UNK        -0.1998 
      2 C         -84.3362   27.3949  -73.7608 C.2       0 UNK         0.4909 
      3 O         -84.5249   26.8000  -72.7018 O.2       0 UNK        -0.5240 
      4 N         -83.1737   28.0214  -73.9921 N.am      1 UNK        -0.4739 
      5 CA        -82.7797   28.7493  -75.2079 C.3       1 UNK         0.0864 
      6 C6        -81.7667   29.8784  -74.8794 C.3       11 UNK        -0.0881 
      7 S7        -80.1453   29.2961  -74.2687 S.3       11 UNK        -0.2682 
      8 C8        -80.2314   29.6805  -72.4963 C.3       11 UNK         0.0289 
      9 C9        -78.9263   29.3169  -71.8037 C.ar      11 UNK        -0.0687 
     10 C10       -78.7223   28.0243  -71.3104 C.ar      11 UNK        -0.0823 
     11 C11       -77.5298   27.6926  -70.6580 C.ar      11 UNK        -0.0830 
     12 C12       -76.5387   28.6652  -70.4981 C.ar      11 UNK        -0.1021 
     13 C13       -76.7281   29.9581  -70.9951 C.ar      11 UNK        -0.0753 
     14 C14       -77.9224   30.2772  -71.6485 C.ar      11 UNK        -0.0933 
     15 C15       -75.6544   31.0197  -70.8109 C.3       11 UNK         0.0166 
     16 S16       -74.4754   31.0291  -72.1954 S.3       11 UNK        -0.2615 
     17 C17       -73.4128   29.6068  -71.7693 C.3       11 UNK        -0.0865 
     18 CA        -72.0902   29.6028  -72.5811 C.3       10 UNK         0.0862 
     19 C         -71.0707   28.5518  -72.0497 C.2       10 UNK         0.5551 
     20 N         -70.3376   27.8406  -72.8992 N.am      10 UNK        -0.7319 
     21 O         -70.9250   28.3870  -70.8410 O.2       10 UNK        -0.5018 
     22 N         -72.3574   29.4541  -74.0182 N.am      10 UNK        -0.4509 
     23 C         -71.8209   30.1941  -74.9931 C.2       10 UNK         0.4899 
     24 O         -71.0705   31.1523  -74.7984 O.2       10 UNK        -0.4839 
     25 CA        -72.1761   29.7675  -76.4312 C.3       9 UNK         0.0222 
     26 CB        -71.3243   30.4826  -77.5012 C.3       9 UNK        -0.1966 
     27 N         -72.1325   28.3116  -76.6248 N.am      9 UNK        -0.4218 
     28 C         -71.0838   27.4961  -76.4226 C.2       9 UNK         0.5020 
     29 O         -69.9899   27.8899  -76.0148 O.2       9 UNK        -0.5274 
     30 CA        -71.2665   25.9847  -76.6733 C.3       8 UNK         0.0270 
     31 CB        -70.9294   25.1837  -75.4033 C.3       8 UNK        -0.1976 
     32 N         -72.6082   25.6093  -77.1243 N.am      8 UNK        -0.4313 
     33 C         -73.0928   25.7878  -78.3599 C.2       8 UNK         0.5041 
     34 O         -72.4302   26.2289  -79.2992 O.2       8 UNK        -0.5577 
     35 CA        -74.5853   25.4721  -78.5663 C.3       7 UNK         0.0284 
     36 CB        -74.7905   23.9815  -78.8785 C.3       7 UNK        -0.1958 
     37 N         -75.4160   25.8526  -77.4184 N.am      7 UNK        -0.4454 
     38 C         -75.5624   27.1036  -76.9554 C.2       7 UNK         0.5089 
     39 O         -75.0289   28.0900  -77.4621 O.2       7 UNK        -0.5125 
     40 CA        -76.4004   27.2708  -75.6787 C.3       6 UNK         0.0408 
     41 CB        -77.9014   27.1722  -75.9930 C.3       6 UNK        -0.1791 
     42 N         -76.0353   26.2773  -74.6681 N.am      6 UNK        -0.4762 
     43 C         -74.8705   26.2658  -74.0037 C.2       6 UNK         0.5007 
     44 O         -73.9942   27.1188  -74.1474 O.2       6 UNK        -0.5032 
     45 CA        -74.6138   25.0728  -73.0599 C.3       5 UNK         0.0783 
     46 C46       -75.1193   25.3476  -71.6188 C.3       11 UNK        -0.0857 
     47 S47       -76.9169   25.0913  -71.4011 S.3       11 UNK        -0.2512 
     48 C48       -77.3314   26.2917  -70.0992 C.3       11 UNK         0.0225 
     49 N         -75.1307   23.8093  -73.5985 N.am      5 UNK        -0.4615 
     50 C         -74.7024   23.2126  -74.7182 C.2       4 UNK         0.5053 
     51 O         -73.7683   23.6304  -75.3989 O.2       4 UNK        -0.5105 
     52 CA        -75.4882   21.9753  -75.1881 C.3       4 UNK         0.0263 
     53 CB        -74.9777   20.7101  -74.4810 C.3       4 UNK        -0.1981 
     54 N         -76.9373   22.1040  -74.9901 N.am      4 UNK        -0.4224 
     55 C         -77.6953   23.0509  -75.5598 C.2       3 UNK         0.4895 
     56 O         -77.2567   23.8937  -76.3484 O.2       3 UNK        -0.5091 
     57 CA        -79.1701   23.1010  -75.1405 C.3       3 UNK         0.0250 
     58 CB        -79.2912   23.5367  -73.6636 C.3       3 UNK        -0.1996 
     59 N         -79.8560   24.0539  -76.0115 N.am      3 UNK        -0.4254 
     60 C         -81.1631   24.3297  -76.0219 C.2       2 UNK         0.5004 
     61 O         -81.9994   23.7513  -75.3247 O.2       2 UNK        -0.5226 
     62 CA        -81.6176   25.4800  -76.9246 C.3       2 UNK         0.0269 
     63 CB        -82.6900   25.0263  -77.9335 C.3       2 UNK        -0.1926 
     64 N         -82.1444   26.5166  -76.0443 N.am      2 UNK        -0.4687 
     65 C         -82.2748   27.8160  -76.3366 C.2       1 UNK         0.5165 
     66 O         -82.0164   28.2898  -77.4438 O.2       1 UNK        -0.5079 
     67 H67       -85.0844   27.0236  -75.7688 H         1 UNK         0.0900 
     68 H68       -86.2793   26.7987  -74.5004 H         1 UNK         0.0900 
     69 H69       -85.8106   28.4289  -74.9662 H         1 UNK         0.0900 
     70 H70       -82.4599   27.9809  -73.2791 H         1 UNK         0.2959 
     71 H71       -83.6641   29.2447  -75.6126 H         1 UNK         0.1079 
     72 H72       -82.2029   30.5635  -74.1507 H         1 UNK         0.0837 
     73 H73       -81.5864   30.4856  -75.7686 H         1 UNK         0.0837 
     74 H74       -81.0614   29.1387  -72.0411 H         1 UNK         0.0685 
     75 H75       -80.4438   30.7427  -72.3645 H         1 UNK         0.0685 
     76 H76       -79.4923   27.2748  -71.4333 H         1 UNK         0.1434 
     77 H77       -75.6202   28.4185  -69.9837 H         1 UNK         0.1329 
     78 H78       -78.0720   31.2764  -72.0344 H         1 UNK         0.1335 
     79 H79       -76.1186   32.0048  -70.7434 H         1 UNK         0.0680 
     80 H80       -75.1256   30.8718  -69.8680 H         1 UNK         0.0680 
     81 H81       -73.9689   28.6840  -71.9385 H         1 UNK         0.1032 
     82 H82       -73.2044   29.6504  -70.6988 H         1 UNK         0.1032 
     83 H83       -71.6078   30.5657  -72.4048 H         1 UNK         0.0461 
     84 H84       -70.3975   27.9995  -73.8965 H         1 UNK         0.3453 
     85 H85       -69.6760   27.1741  -72.5352 H         1 UNK         0.3453 
     86 H86       -72.9456   28.6598  -74.2612 H         1 UNK         0.2984 
     87 H87       -73.2147   30.0631  -76.5859 H         1 UNK         0.0554 
     88 H88       -71.4448   31.5648  -77.4385 H         1 UNK         0.0847 
     89 H89       -71.6185   30.1829  -78.5070 H         1 UNK         0.0847 
     90 H90       -70.2618   30.2665  -77.3839 H         1 UNK         0.0847 
     91 H91       -73.0070   27.8992  -76.9306 H         1 UNK         0.3141 
     92 H92       -70.5536   25.7024  -77.4506 H         1 UNK         0.0743 
     93 H93       -69.9084   25.3775  -75.0722 H         1 UNK         0.0784 
     94 H94       -71.5945   25.4425  -74.5788 H         1 UNK         0.0784 
     95 H95       -71.0117   24.1106  -75.5769 H         1 UNK         0.0784 
     96 H96       -73.2008   25.1486  -76.4374 H         1 UNK         0.3213 
     97 H97       -74.9291   26.0520  -79.4253 H         1 UNK         0.0855 
     98 H98       -74.4565   23.3471  -78.0575 H         1 UNK         0.0814 
     99 H99       -74.2279   23.6888  -79.7660 H         1 UNK         0.0814 
    100 H100      -75.8400   23.7560  -79.0695 H         1 UNK         0.0814 
    101 H101      -75.9274   25.1061  -76.9528 H         1 UNK         0.3105 
    102 H102      -76.2046   28.2602  -75.2590 H         1 UNK         0.0547 
    103 H103      -78.1348   26.3260  -76.6366 H         1 UNK         0.0837 
    104 H104      -78.2445   28.0687  -76.5106 H         1 UNK         0.0837 
    105 H105      -78.4938   27.0714  -75.0842 H         1 UNK         0.0837 
    106 H106      -76.6809   25.5163  -74.5183 H         1 UNK         0.3020 
    107 H107      -73.5275   24.9695  -73.0054 H         1 UNK         0.1245 
    108 H108      -74.8433   26.3532  -71.2966 H         1 UNK         0.0781 
    109 H109      -74.6126   24.6724  -70.9276 H         1 UNK         0.0781 
    110 H110      -76.5593   26.2810  -69.3282 H         1 UNK         0.0836 
    111 H111      -78.2509   25.9692  -69.6083 H         1 UNK         0.0836 
    112 H112      -75.9100   23.4077  -73.0978 H         1 UNK         0.3022 
    113 H113      -75.3105   21.8612  -76.2593 H         1 UNK         0.0747 
    114 H114      -75.4617   19.8146  -74.8712 H         1 UNK         0.0793 
    115 H115      -73.9040   20.5868  -74.6313 H         1 UNK         0.0793 
    116 H116      -75.1539   20.7466  -73.4052 H         1 UNK         0.0793 
    117 H117      -77.3700   21.4456  -74.3579 H         1 UNK         0.3047 
    118 H118      -79.6072   22.1104  -75.2796 H         1 UNK         0.0822 
    119 H119      -80.3196   23.4774  -73.3085 H         1 UNK         0.0807 
    120 H120      -78.9540   24.5641  -73.5231 H         1 UNK         0.0807 
    121 H121      -78.6996   22.9025  -73.0027 H         1 UNK         0.0807 
    122 H122      -79.2241   24.5373  -76.6382 H         1 UNK         0.2946 
    123 H123      -80.7588   25.8762  -77.4715 H         1 UNK         0.1144 
    124 H124      -82.9868   25.8415  -78.5933 H         1 UNK         0.0793 
    125 H125      -83.5864   24.6592  -77.4320 H         1 UNK         0.0793 
    126 H126      -82.3140   24.2200  -78.5644 H         1 UNK         0.0793 
    127 H127      -82.3645   26.2083  -75.1058 H         1 UNK         0.2896 
@<TRIPOS>BOND
     1    1    2 1    
     2    1   67 1    
     3    1   68 1    
     4    1   69 1    
     5    2    3 2    
     6    2    4 am   BACKBONE|DICT|INTERRES
     7    4    5 1    
     8    4   70 1    
     9    5    6 1    
    10    5   65 1    
    11    5   71 1    
    12    6    7 1    
    13    6   72 1    
    14    6   73 1    
    15    7    8 1    
    16    8    9 1    
    17    8   74 1    
    18    8   75 1    
    19    9   10 ar   
    20    9   14 ar   
    21   10   11 ar   
    22   10   76 1    
    23   11   12 ar   
    24   11   48 1    
    25   12   13 ar   
    26   12   77 1    
    27   13   14 ar   
    28   13   15 1    
    29   14   78 1    
    30   15   16 1    
    31   15   79 1    
    32   15   80 1    
    33   16   17 1    
    34   17   18 1    
    35   17   81 1    
    36   17   82 1    
    37   18   19 1    
    38   18   22 1    
    39   18   83 1    
    40   19   20 am   BACKBONE|DICT|INTERRES
    41   19   21 2    
    42   20   84 1    
    43   20   85 1    
    44   22   23 am   BACKBONE|DICT|INTERRES
    45   22   86 1    
    46   23   24 2    
    47   23   25 1    
    48   25   26 1    
    49   25   27 1    
    50   25   87 1    
    51   26   88 1    
    52   26   89 1    
    53   26   90 1    
    54   27   28 am   BACKBONE|DICT|INTERRES
    55   27   91 1    
    56   28   29 2    
    57   28   30 1    
    58   30   31 1    
    59   30   32 1    
    60   30   92 1    
    61   31   93 1    
    62   31   94 1    
    63   31   95 1    
    64   32   33 am   BACKBONE|DICT|INTERRES
    65   32   96 1    
    66   33   34 2    
    67   33   35 1    
    68   35   36 1    
    69   35   37 1    
    70   35   97 1    
    71   36   98 1    
    72   36   99 1    
    73   36  100 1    
    74   37   38 am   BACKBONE|DICT|INTERRES
    75   37  101 1    
    76   38   39 2    
    77   38   40 1    
    78   40   41 1    
    79   40   42 1    
    80   40  102 1    
    81   41  103 1    
    82   41  104 1    
    83   41  105 1    
    84   42   43 am   BACKBONE|DICT|INTERRES
    85   42  106 1    
    86   43   44 2    
    87   43   45 1    
    88   45   46 1    
    89   45   49 1    
    90   45  107 1    
    91   46   47 1    
    92   46  108 1    
    93   46  109 1    
    94   47   48 1    
    95   48  110 1    
    96   48  111 1    
    97   49   50 am   BACKBONE|DICT|INTERRES
    98   49  112 1    
    99   50   51 2    
   100   50   52 1    
   101   52   53 1    
   102   52   54 1    
   103   52  113 1    
   104   53  114 1    
   105   53  115 1    
   106   53  116 1    
   107   54   55 am   BACKBONE|DICT|INTERRES
   108   54  117 1    
   109   55   56 2    
   110   55   57 1    
   111   57   58 1    
   112   57   59 1    
   113   57  118 1    
   114   58  119 1    
   115   58  120 1    
   116   58  121 1    
   117   59   60 am   BACKBONE|DICT|INTERRES
   118   59  122 1    
   119   60   61 2    
   120   60   62 1    
   121   62   63 1    
   122   62   64 1    
   123   62  123 1    
   124   63  124 1    
   125   63  125 1    
   126   63  126 1    
   127   64   65 am   BACKBONE|DICT|INTERRES
   128   64  127 1    
   129   65   66 2    
@<TRIPOS>SUBSTRUCTURE
     1 UNK         1 GROUP             0       ****    0 ROOT    
