@<TRIPOS>MOLECULE
3R135
127   129    1
SMALL
USER_CHARGES


@<TRIPOS>ATOM
      1 CA        -83.7978   29.1296  -72.6137 C.3       0 UNK        -0.1998 
      2 C         -82.9481   29.2780  -73.8667 C.2       0 UNK         0.4909 
      3 O         -83.4880   29.4912  -74.9526 O.2       0 UNK        -0.5240 
      4 N         -81.6212   29.1672  -73.7228 N.am      1 UNK        -0.4739 
      5 CA        -80.6472   29.2706  -74.8173 C.3       1 UNK         0.0864 
      6 C6        -79.2101   29.5121  -74.2937 C.3       11 UNK        -0.0881 
      7 S7        -79.0085   31.0752  -73.3674 S.3       11 UNK        -0.2682 
      8 C8        -79.3057   30.6054  -71.6276 C.3       11 UNK         0.0289 
      9 C9        -78.4822   29.4035  -71.1869 C.ar      11 UNK        -0.0687 
     10 C10       -79.1017   28.1695  -70.9738 C.ar      11 UNK        -0.0823 
     11 C11       -78.3551   27.0550  -70.5859 C.ar      11 UNK        -0.0830 
     12 C12       -76.9699   27.1775  -70.4245 C.ar      11 UNK        -0.1021 
     13 C13       -76.3380   28.4129  -70.6188 C.ar      11 UNK        -0.0753 
     14 C14       -77.1050   29.5237  -70.9862 C.ar      11 UNK        -0.0933 
     15 C15       -74.8381   28.5617  -70.3831 C.3       11 UNK         0.0166 
     16 S16       -73.8653   28.5292  -71.9255 S.3       11 UNK        -0.2615 
     17 C17       -74.1975   30.1890  -72.6122 C.3       11 UNK        -0.0865 
     18 CA        -73.2510   30.6625  -73.7504 C.3       10 UNK         0.0862 
     19 C         -71.7383   30.6658  -73.3806 C.2       10 UNK         0.5551 
     20 N         -70.8329   30.2928  -74.2786 N.am      10 UNK        -0.7319 
     21 O         -71.3730   31.0468  -72.2709 O.2       10 UNK        -0.5018 
     22 N         -73.5519   30.0037  -75.0349 N.am      10 UNK        -0.4509 
     23 C         -73.7501   30.6621  -76.1867 C.2       10 UNK         0.4899 
     24 O         -73.7741   31.8915  -76.2728 O.2       10 UNK        -0.4839 
     25 CA        -73.9492   29.8138  -77.4617 C.3       9 UNK         0.0222 
     26 CB        -73.8963   30.6597  -78.7522 C.3       9 UNK        -0.1966 
     27 N         -73.0306   28.6747  -77.5759 N.am      9 UNK        -0.4218 
     28 C         -71.6894   28.6904  -77.5200 C.2       9 UNK         0.5020 
     29 O         -71.0185   29.6990  -77.2950 O.2       9 UNK        -0.5274 
     30 CA        -70.9987   27.3298  -77.7057 C.3       8 UNK         0.0270 
     31 CB        -69.4996   27.3579  -77.3518 C.3       8 UNK        -0.1976 
     32 N         -71.6770   26.3507  -76.8637 N.am      8 UNK        -0.4313 
     33 C         -72.1362   25.1529  -77.2274 C.2       8 UNK         0.5041 
     34 O         -71.9838   24.6672  -78.3487 O.2       8 UNK        -0.5577 
     35 CA        -72.9052   24.3655  -76.1511 C.3       7 UNK         0.0284 
     36 CB        -71.9871   23.9841  -74.9729 C.3       7 UNK        -0.1958 
     37 N         -74.1347   25.0088  -75.6629 N.am      7 UNK        -0.4454 
     38 C         -74.2949   26.1912  -75.0428 C.2       7 UNK         0.5089 
     39 O         -73.4023   27.0253  -74.8867 O.2       7 UNK        -0.5125 
     40 CA        -75.6974   26.4993  -74.4931 C.3       6 UNK         0.0408 
     41 CB        -76.5396   27.2280  -75.5480 C.3       6 UNK        -0.1791 
     42 N         -76.3996   25.3059  -74.0168 N.am      6 UNK        -0.4762 
     43 C         -76.0051   24.5652  -72.9672 C.2       6 UNK         0.5007 
     44 O         -75.0155   24.8262  -72.2821 O.2       6 UNK        -0.5032 
     45 CA        -76.8106   23.2985  -72.6315 C.3       5 UNK         0.0783 
     46 C46       -77.7874   23.5051  -71.4496 C.3       11 UNK        -0.0857 
     47 S47       -79.1622   24.6667  -71.7649 S.3       11 UNK        -0.2512 
     48 C48       -79.0709   25.7426  -70.2981 C.3       11 UNK         0.0225 
     49 N         -77.4601   22.7343  -73.8196 N.am      5 UNK        -0.4615 
     50 C         -77.1413   21.5446  -74.3489 C.2       4 UNK         0.5053 
     51 O         -76.3176   20.7736  -73.8548 O.2       4 UNK        -0.5105 
     52 CA        -77.8445   21.1230  -75.6520 C.3       4 UNK         0.0263 
     53 CB        -79.0811   20.2660  -75.3362 C.3       4 UNK        -0.1981 
     54 N         -78.2415   22.2342  -76.5175 N.am      4 UNK        -0.4224 
     55 C         -77.4170   23.1405  -77.0615 C.2       3 UNK         0.4895 
     56 O         -76.1960   23.1572  -76.8996 O.2       3 UNK        -0.5091 
     57 CA        -78.0802   24.2495  -77.8973 C.3       3 UNK         0.0250 
     58 CB        -78.1798   23.8184  -79.3692 C.3       3 UNK        -0.1996 
     59 N         -79.4053   24.6788  -77.4246 N.am      3 UNK        -0.4254 
     60 C         -79.7023   25.0776  -76.1790 C.2       2 UNK         0.5004 
     61 O         -78.9155   25.0196  -75.2321 O.2       2 UNK        -0.5226 
     62 CA        -81.1263   25.5976  -75.9345 C.3       2 UNK         0.0269 
     63 CB        -81.9335   24.5791  -75.1133 C.3       2 UNK        -0.1926 
     64 N         -81.1007   26.8766  -75.2227 N.am      2 UNK        -0.4687 
     65 C         -80.6707   28.0354  -75.7456 C.2       1 UNK         0.5165 
     66 O         -80.3021   28.1561  -76.9149 O.2       1 UNK        -0.5079 
     67 H67       -84.4857   28.2918  -72.7243 H         1 UNK         0.0900 
     68 H68       -83.1907   28.9550  -71.7256 H         1 UNK         0.0900 
     69 H69       -84.3848   30.0330  -72.4500 H         1 UNK         0.0900 
     70 H70       -81.2323   29.0080  -72.8071 H         1 UNK         0.2959 
     71 H71       -80.9285   30.1281  -75.4332 H         1 UNK         0.1079 
     72 H72       -78.5192   29.5749  -75.1366 H         1 UNK         0.0837 
     73 H73       -78.8646   28.6663  -73.6990 H         1 UNK         0.0837 
     74 H74       -79.0622   31.4576  -70.9915 H         1 UNK         0.0685 
     75 H75       -80.3707   30.4214  -71.4824 H         1 UNK         0.0685 
     76 H76       -80.1705   28.0727  -71.1004 H         1 UNK         0.1434 
     77 H77       -76.3861   26.3164  -70.1290 H         1 UNK         0.1329 
     78 H78       -76.6324   30.4858  -71.1238 H         1 UNK         0.1335 
     79 H79       -74.6350   29.4857  -69.8399 H         1 UNK         0.0680 
     80 H80       -74.4843   27.7537  -69.7410 H         1 UNK         0.0680 
     81 H81       -75.2254   30.2108  -72.9759 H         1 UNK         0.1032 
     82 H82       -74.1569   30.9084  -71.7925 H         1 UNK         0.1032 
     83 H83       -73.4744   31.7251  -73.8572 H         1 UNK         0.0461 
     84 H84       -71.1039   30.0507  -75.2236 H         1 UNK         0.3453 
     85 H85       -69.8577   30.3121  -74.0272 H         1 UNK         0.3453 
     86 H86       -73.5014   28.9887  -75.0295 H         1 UNK         0.2984 
     87 H87       -74.9523   29.3929  -77.3919 H         1 UNK         0.0554 
     88 H88       -74.0815   30.0493  -79.6360 H         1 UNK         0.0847 
     89 H89       -72.9268   31.1436  -78.8765 H         1 UNK         0.0847 
     90 H90       -74.6536   31.4446  -78.7403 H         1 UNK         0.0847 
     91 H91       -73.4690   27.7778  -77.7295 H         1 UNK         0.3141 
     92 H92       -71.1033   27.0610  -78.7588 H         1 UNK         0.0743 
     93 H93       -69.3367   27.6520  -76.3141 H         1 UNK         0.0784 
     94 H94       -69.0411   26.3799  -77.4986 H         1 UNK         0.0784 
     95 H95       -68.9612   28.0662  -77.9828 H         1 UNK         0.0784 
     96 H96       -71.9795   26.6842  -75.9482 H         1 UNK         0.3213 
     97 H97       -73.2306   23.4359  -76.6219 H         1 UNK         0.0855 
     98 H98       -71.6593   24.8569  -74.4072 H         1 UNK         0.0814 
     99 H99       -71.0924   23.4687  -75.3249 H         1 UNK         0.0814 
    100 H100      -72.4959   23.3137  -74.2801 H         1 UNK         0.0814 
    101 H101      -74.9697   24.4460  -75.7948 H         1 UNK         0.3105 
    102 H102      -75.5970   27.1661  -73.6378 H         1 UNK         0.0547 
    103 H103      -76.1540   28.2324  -75.7192 H         1 UNK         0.0837 
    104 H104      -76.5371   26.7074  -76.5041 H         1 UNK         0.0837 
    105 H105      -77.5743   27.3306  -75.2279 H         1 UNK         0.0837 
    106 H106      -77.2770   25.0815  -74.4828 H         1 UNK         0.3020 
    107 H107      -76.0572   22.5946  -72.2702 H         1 UNK         0.1245 
    108 H108      -77.2244   23.8230  -70.5707 H         1 UNK         0.0781 
    109 H109      -78.2273   22.5449  -71.1764 H         1 UNK         0.0781 
    110 H110      -78.5971   25.2269  -69.4620 H         1 UNK         0.0836 
    111 H111      -80.0900   25.9476  -69.9666 H         1 UNK         0.0836 
    112 H112      -78.1420   23.3249  -74.2830 H         1 UNK         0.3022 
    113 H113      -77.1380   20.5105  -76.2161 H         1 UNK         0.0747 
    114 H114      -79.5357   19.8723  -76.2455 H         1 UNK         0.0793 
    115 H115      -78.8147   19.4104  -74.7138 H         1 UNK         0.0793 
    116 H116      -79.8401   20.8360  -74.7985 H         1 UNK         0.0793 
    117 H117      -79.2287   22.3281  -76.7053 H         1 UNK         0.3047 
    118 H118      -77.4258   25.1198  -77.8509 H         1 UNK         0.0822 
    119 H119      -78.8604   22.9759  -79.4992 H         1 UNK         0.0807 
    120 H120      -77.2056   23.5125  -79.7538 H         1 UNK         0.0807 
    121 H121      -78.5309   24.6351  -80.0003 H         1 UNK         0.0807 
    122 H122      -80.1227   24.7483  -78.1323 H         1 UNK         0.2946 
    123 H123      -81.6260   25.7500  -76.8938 H         1 UNK         0.1144 
    124 H124      -82.9557   24.9211  -74.9503 H         1 UNK         0.0793 
    125 H125      -81.4802   24.3980  -74.1373 H         1 UNK         0.0793 
    126 H126      -81.9918   23.6193  -75.6282 H         1 UNK         0.0793 
    127 H127      -81.3563   26.8582  -74.2469 H         1 UNK         0.2896 
@<TRIPOS>BOND
     1    1    2 1    
     2    1   67 1    
     3    1   68 1    
     4    1   69 1    
     5    2    3 2    
     6    2    4 am   BACKBONE|DICT|INTERRES
     7    4    5 1    
     8    4   70 1    
     9    5    6 1    
    10    5   65 1    
    11    5   71 1    
    12    6    7 1    
    13    6   72 1    
    14    6   73 1    
    15    7    8 1    
    16    8    9 1    
    17    8   74 1    
    18    8   75 1    
    19    9   10 ar   
    20    9   14 ar   
    21   10   11 ar   
    22   10   76 1    
    23   11   12 ar   
    24   11   48 1    
    25   12   13 ar   
    26   12   77 1    
    27   13   14 ar   
    28   13   15 1    
    29   14   78 1    
    30   15   16 1    
    31   15   79 1    
    32   15   80 1    
    33   16   17 1    
    34   17   18 1    
    35   17   81 1    
    36   17   82 1    
    37   18   19 1    
    38   18   22 1    
    39   18   83 1    
    40   19   20 am   BACKBONE|DICT|INTERRES
    41   19   21 2    
    42   20   84 1    
    43   20   85 1    
    44   22   23 am   BACKBONE|DICT|INTERRES
    45   22   86 1    
    46   23   24 2    
    47   23   25 1    
    48   25   26 1    
    49   25   27 1    
    50   25   87 1    
    51   26   88 1    
    52   26   89 1    
    53   26   90 1    
    54   27   28 am   BACKBONE|DICT|INTERRES
    55   27   91 1    
    56   28   29 2    
    57   28   30 1    
    58   30   31 1    
    59   30   32 1    
    60   30   92 1    
    61   31   93 1    
    62   31   94 1    
    63   31   95 1    
    64   32   33 am   BACKBONE|DICT|INTERRES
    65   32   96 1    
    66   33   34 2    
    67   33   35 1    
    68   35   36 1    
    69   35   37 1    
    70   35   97 1    
    71   36   98 1    
    72   36   99 1    
    73   36  100 1    
    74   37   38 am   BACKBONE|DICT|INTERRES
    75   37  101 1    
    76   38   39 2    
    77   38   40 1    
    78   40   41 1    
    79   40   42 1    
    80   40  102 1    
    81   41  103 1    
    82   41  104 1    
    83   41  105 1    
    84   42   43 am   BACKBONE|DICT|INTERRES
    85   42  106 1    
    86   43   44 2    
    87   43   45 1    
    88   45   46 1    
    89   45   49 1    
    90   45  107 1    
    91   46   47 1    
    92   46  108 1    
    93   46  109 1    
    94   47   48 1    
    95   48  110 1    
    96   48  111 1    
    97   49   50 am   BACKBONE|DICT|INTERRES
    98   49  112 1    
    99   50   51 2    
   100   50   52 1    
   101   52   53 1    
   102   52   54 1    
   103   52  113 1    
   104   53  114 1    
   105   53  115 1    
   106   53  116 1    
   107   54   55 am   BACKBONE|DICT|INTERRES
   108   54  117 1    
   109   55   56 2    
   110   55   57 1    
   111   57   58 1    
   112   57   59 1    
   113   57  118 1    
   114   58  119 1    
   115   58  120 1    
   116   58  121 1    
   117   59   60 am   BACKBONE|DICT|INTERRES
   118   59  122 1    
   119   60   61 2    
   120   60   62 1    
   121   62   63 1    
   122   62   64 1    
   123   62  123 1    
   124   63  124 1    
   125   63  125 1    
   126   63  126 1    
   127   64   65 am   BACKBONE|DICT|INTERRES
   128   64  127 1    
   129   65   66 2    
@<TRIPOS>SUBSTRUCTURE
     1 UNK         1 GROUP             0       ****    0 ROOT    
