@<TRIPOS>MOLECULE
3R135
127   129    1
SMALL
USER_CHARGES


@<TRIPOS>ATOM
      1 CA        -80.9969   23.8857  -71.0956 C.3       0 UNK        -0.1998 
      2 C         -81.5248   24.7684  -72.2163 C.2       0 UNK         0.4909 
      3 O         -82.5060   24.4103  -72.8679 O.2       0 UNK        -0.5240 
      4 N         -80.8892   25.9250  -72.4364 N.am      1 UNK        -0.4739 
      5 CA        -81.2381   26.8841  -73.4887 C.3       1 UNK         0.0864 
      6 C6        -80.5466   28.2541  -73.2705 C.3       11 UNK        -0.0881 
      7 S7        -80.9186   28.9807  -71.6380 S.3       11 UNK        -0.2682 
      8 C8        -79.4784   30.0716  -71.3707 C.3       11 UNK         0.0289 
      9 C9        -78.1446   29.3301  -71.3655 C.ar      11 UNK        -0.0687 
     10 C10       -77.9554   28.2067  -70.5541 C.ar      11 UNK        -0.0823 
     11 C11       -76.7398   27.5160  -70.5655 C.ar      11 UNK        -0.0830 
     12 C12       -75.6972   27.9758  -71.3753 C.ar      11 UNK        -0.1021 
     13 C13       -75.8691   29.1006  -72.1860 C.ar      11 UNK        -0.0753 
     14 C14       -77.0946   29.7739  -72.1763 C.ar      11 UNK        -0.0933 
     15 C15       -74.7436   29.5622  -73.0996 C.3       11 UNK         0.0166 
     16 S16       -73.3975   30.3452  -72.1615 S.3       11 UNK        -0.2615 
     17 C17       -73.1115   31.9004  -73.0751 C.3       11 UNK        -0.0865 
     18 CA        -72.7606   31.7572  -74.5837 C.3       10 UNK         0.0862 
     19 C         -72.4455   33.1620  -75.1726 C.2       10 UNK         0.5551 
     20 N         -73.4317   33.8261  -75.7600 N.am      10 UNK        -0.7319 
     21 O         -71.3324   33.6709  -75.0528 O.2       10 UNK        -0.5018 
     22 N         -71.7001   30.7629  -74.8189 N.am      10 UNK        -0.4509 
     23 C         -71.1704   30.4452  -76.0081 C.2       10 UNK         0.4899 
     24 O         -71.5321   30.9309  -77.0803 O.2       10 UNK        -0.4839 
     25 CA        -70.0572   29.3849  -76.0181 C.3       9 UNK         0.0222 
     26 CB        -68.8354   29.8056  -75.1745 C.3       9 UNK        -0.1966 
     27 N         -70.5493   28.0488  -75.6672 N.am      9 UNK        -0.4218 
     28 C         -71.0021   27.6001  -74.4898 C.2       9 UNK         0.5020 
     29 O         -70.9963   28.2679  -73.4547 O.2       9 UNK        -0.5274 
     30 CA        -71.5597   26.1611  -74.4820 C.3       8 UNK         0.0270 
     31 CB        -71.9868   25.7060  -73.0735 C.3       8 UNK        -0.1976 
     32 N         -72.6902   25.9937  -75.4046 N.am      8 UNK        -0.4313 
     33 C         -72.5972   25.9166  -76.7423 C.2       8 UNK         0.5041 
     34 O         -71.5214   25.9759  -77.3415 O.2       8 UNK        -0.5577 
     35 CA        -73.8904   25.7551  -77.5675 C.3       7 UNK         0.0284 
     36 CB        -74.0340   24.3063  -78.0619 C.3       7 UNK        -0.1958 
     37 N         -75.1091   26.1300  -76.8517 N.am      7 UNK        -0.4454 
     38 C         -75.4363   27.3705  -76.4668 C.2       7 UNK         0.5089 
     39 O         -74.7840   28.3731  -76.7560 O.2       7 UNK        -0.5125 
     40 CA        -76.6935   27.5146  -75.5860 C.3       6 UNK         0.0408 
     41 CB        -77.8743   28.0144  -76.4314 C.3       6 UNK        -0.1791 
     42 N         -77.0919   26.3027  -74.8509 N.am      6 UNK        -0.4762 
     43 C         -76.3121   25.6062  -74.0056 C.2       6 UNK         0.5007 
     44 O         -75.1266   25.8755  -73.8167 O.2       6 UNK        -0.5032 
     45 CA        -76.9070   24.3649  -73.3150 C.3       5 UNK         0.0783 
     46 C46       -77.4330   24.6527  -71.8864 C.3       11 UNK        -0.0857 
     47 S47       -76.0848   24.7950  -70.6629 S.3       11 UNK        -0.2512 
     48 C48       -76.5613   26.2723  -69.7035 C.3       11 UNK         0.0225 
     49 N         -77.9190   23.7123  -74.1513 N.am      5 UNK        -0.4615 
     50 C         -78.0370   22.3849  -74.2768 C.2       4 UNK         0.5053 
     51 O         -77.3292   21.5752  -73.6769 O.2       4 UNK        -0.5105 
     52 CA        -79.1204   21.8540  -75.2297 C.3       4 UNK         0.0263 
     53 CB        -80.4516   21.6679  -74.4865 C.3       4 UNK        -0.1981 
     54 N         -79.3443   22.6874  -76.4115 N.am      4 UNK        -0.4224 
     55 C         -78.4655   22.9109  -77.3958 C.2       3 UNK         0.4895 
     56 O         -77.3140   22.4756  -77.3955 O.2       3 UNK        -0.5091 
     57 CA        -78.9418   23.7566  -78.5938 C.3       3 UNK         0.0250 
     58 CB        -79.6701   22.8795  -79.6308 C.3       3 UNK        -0.1996 
     59 N         -79.7348   24.9458  -78.2440 N.am      3 UNK        -0.4254 
     60 C         -80.9394   25.0198  -77.6580 C.2       2 UNK         0.5004 
     61 O         -81.6245   24.0445  -77.3423 O.2       2 UNK        -0.5226 
     62 CA        -81.4414   26.4356  -77.3252 C.3       2 UNK         0.0269 
     63 CB        -82.7326   26.7451  -78.1010 C.3       2 UNK        -0.1926 
     64 N         -81.6742   26.6650  -75.8923 N.am      2 UNK        -0.4687 
     65 C         -80.8580   26.3372  -74.8783 C.2       1 UNK         0.5165 
     66 O         -79.8014   25.7097  -75.0067 O.2       1 UNK        -0.5079 
     67 H67       -81.8163   23.5644  -70.4532 H         1 UNK         0.0900 
     68 H68       -80.2698   24.4081  -70.4743 H         1 UNK         0.0900 
     69 H69       -80.5208   22.9976  -71.5101 H         1 UNK         0.0900 
     70 H70       -80.1035   26.1859  -71.8609 H         1 UNK         0.2959 
     71 H71       -82.3200   27.0322  -73.4583 H         1 UNK         0.1079 
     72 H72       -80.8593   28.9701  -74.0332 H         1 UNK         0.0837 
     73 H73       -79.4655   28.1476  -73.3787 H         1 UNK         0.0837 
     74 H74       -79.4870   30.8480  -72.1373 H         1 UNK         0.0685 
     75 H75       -79.5981   30.5820  -70.4143 H         1 UNK         0.0685 
     76 H76       -78.7648   27.8646  -69.9237 H         1 UNK         0.1434 
     77 H77       -74.7557   27.4435  -71.3943 H         1 UNK         0.1329 
     78 H78       -77.2329   30.6414  -72.8070 H         1 UNK         0.1335 
     79 H79       -74.3376   28.7082  -73.6448 H         1 UNK         0.0680 
     80 H80       -75.1367   30.2474  -73.8503 H         1 UNK         0.0680 
     81 H81       -73.9991   32.5248  -72.9550 H         1 UNK         0.1032 
     82 H82       -72.3084   32.4265  -72.5547 H         1 UNK         0.1032 
     83 H83       -73.6383   31.3767  -75.1077 H         1 UNK         0.0461 
     84 H84       -74.3504   33.4221  -75.8548 H         1 UNK         0.3453 
     85 H85       -73.2496   34.7457  -76.1308 H         1 UNK         0.3453 
     86 H86       -71.3914   30.2345  -74.0097 H         1 UNK         0.2984 
     87 H87       -69.7140   29.3017  -77.0506 H         1 UNK         0.0554 
     88 H88       -68.0275   29.0791  -75.2608 H         1 UNK         0.0847 
     89 H89       -69.0735   29.9138  -74.1164 H         1 UNK         0.0847 
     90 H90       -68.4448   30.7657  -75.5143 H         1 UNK         0.0847 
     91 H91       -70.6662   27.4078  -76.4506 H         1 UNK         0.3141 
     92 H92       -70.7518   25.5023  -74.8074 H         1 UNK         0.0743 
     93 H93       -72.7653   26.3495  -72.6612 H         1 UNK         0.0784 
     94 H94       -72.3675   24.6846  -73.0817 H         1 UNK         0.0784 
     95 H95       -71.1438   25.7335  -72.3821 H         1 UNK         0.0784 
     96 H96       -73.6115   25.9694  -74.9721 H         1 UNK         0.3213 
     97 H97       -73.7999   26.4081  -78.4383 H         1 UNK         0.0855 
     98 H98       -74.1465   23.6057  -77.2333 H         1 UNK         0.0814 
     99 H99       -73.1562   23.9988  -78.6320 H         1 UNK         0.0814 
    100 H100      -74.8989   24.1920  -78.7159 H         1 UNK         0.0814 
    101 H101      -75.7100   25.3760  -76.5527 H         1 UNK         0.3105 
    102 H102      -76.4761   28.2799  -74.8427 H         1 UNK         0.0547 
    103 H103      -78.1958   27.2627  -77.1507 H         1 UNK         0.0837 
    104 H104      -78.7275   28.2784  -75.8083 H         1 UNK         0.0837 
    105 H105      -77.6034   28.9094  -76.9934 H         1 UNK         0.0837 
    106 H106      -78.0706   26.0377  -74.9413 H         1 UNK         0.3020 
    107 H107      -76.0633   23.6761  -73.2223 H         1 UNK         0.1245 
    108 H108      -78.0689   25.5377  -71.8778 H         1 UNK         0.0781 
    109 H109      -78.0616   23.8272  -71.5513 H         1 UNK         0.0781 
    110 H110      -77.4743   26.0472  -69.1500 H         1 UNK         0.0836 
    111 H111      -75.7915   26.4694  -68.9564 H         1 UNK         0.0836 
    112 H112      -78.5753   24.3134  -74.6416 H         1 UNK         0.3022 
    113 H113      -78.7885   20.8743  -75.5797 H         1 UNK         0.0747 
    114 H114      -81.1821   21.1500  -75.1081 H         1 UNK         0.0793 
    115 H115      -80.3195   21.0760  -73.5797 H         1 UNK         0.0793 
    116 H116      -80.8828   22.6256  -74.1962 H         1 UNK         0.0793 
    117 H117      -80.2696   23.0973  -76.5226 H         1 UNK         0.3047 
    118 H118      -78.0393   24.1406  -79.0727 H         1 UNK         0.0822 
    119 H119      -79.9357   23.4533  -80.5187 H         1 UNK         0.0807 
    120 H120      -80.5845   22.4425  -79.2283 H         1 UNK         0.0807 
    121 H121      -79.0348   22.0547  -79.9565 H         1 UNK         0.0807 
    122 H122      -79.2697   25.8189  -78.4463 H         1 UNK         0.2946 
    123 H123      -80.6851   27.1568  -77.6405 H         1 UNK         0.1144 
    124 H124      -83.0465   27.7793  -77.9582 H         1 UNK         0.0793 
    125 H125      -83.5537   26.0980  -77.7891 H         1 UNK         0.0793 
    126 H126      -82.5909   26.5969  -79.1725 H         1 UNK         0.0793 
    127 H127      -82.5200   27.1699  -75.6703 H         1 UNK         0.2896 
@<TRIPOS>BOND
     1    1    2 1    
     2    1   67 1    
     3    1   68 1    
     4    1   69 1    
     5    2    3 2    
     6    2    4 am   BACKBONE|DICT|INTERRES
     7    4    5 1    
     8    4   70 1    
     9    5    6 1    
    10    5   65 1    
    11    5   71 1    
    12    6    7 1    
    13    6   72 1    
    14    6   73 1    
    15    7    8 1    
    16    8    9 1    
    17    8   74 1    
    18    8   75 1    
    19    9   10 ar   
    20    9   14 ar   
    21   10   11 ar   
    22   10   76 1    
    23   11   12 ar   
    24   11   48 1    
    25   12   13 ar   
    26   12   77 1    
    27   13   14 ar   
    28   13   15 1    
    29   14   78 1    
    30   15   16 1    
    31   15   79 1    
    32   15   80 1    
    33   16   17 1    
    34   17   18 1    
    35   17   81 1    
    36   17   82 1    
    37   18   19 1    
    38   18   22 1    
    39   18   83 1    
    40   19   20 am   BACKBONE|DICT|INTERRES
    41   19   21 2    
    42   20   84 1    
    43   20   85 1    
    44   22   23 am   BACKBONE|DICT|INTERRES
    45   22   86 1    
    46   23   24 2    
    47   23   25 1    
    48   25   26 1    
    49   25   27 1    
    50   25   87 1    
    51   26   88 1    
    52   26   89 1    
    53   26   90 1    
    54   27   28 am   BACKBONE|DICT|INTERRES
    55   27   91 1    
    56   28   29 2    
    57   28   30 1    
    58   30   31 1    
    59   30   32 1    
    60   30   92 1    
    61   31   93 1    
    62   31   94 1    
    63   31   95 1    
    64   32   33 am   BACKBONE|DICT|INTERRES
    65   32   96 1    
    66   33   34 2    
    67   33   35 1    
    68   35   36 1    
    69   35   37 1    
    70   35   97 1    
    71   36   98 1    
    72   36   99 1    
    73   36  100 1    
    74   37   38 am   BACKBONE|DICT|INTERRES
    75   37  101 1    
    76   38   39 2    
    77   38   40 1    
    78   40   41 1    
    79   40   42 1    
    80   40  102 1    
    81   41  103 1    
    82   41  104 1    
    83   41  105 1    
    84   42   43 am   BACKBONE|DICT|INTERRES
    85   42  106 1    
    86   43   44 2    
    87   43   45 1    
    88   45   46 1    
    89   45   49 1    
    90   45  107 1    
    91   46   47 1    
    92   46  108 1    
    93   46  109 1    
    94   47   48 1    
    95   48  110 1    
    96   48  111 1    
    97   49   50 am   BACKBONE|DICT|INTERRES
    98   49  112 1    
    99   50   51 2    
   100   50   52 1    
   101   52   53 1    
   102   52   54 1    
   103   52  113 1    
   104   53  114 1    
   105   53  115 1    
   106   53  116 1    
   107   54   55 am   BACKBONE|DICT|INTERRES
   108   54  117 1    
   109   55   56 2    
   110   55   57 1    
   111   57   58 1    
   112   57   59 1    
   113   57  118 1    
   114   58  119 1    
   115   58  120 1    
   116   58  121 1    
   117   59   60 am   BACKBONE|DICT|INTERRES
   118   59  122 1    
   119   60   61 2    
   120   60   62 1    
   121   62   63 1    
   122   62   64 1    
   123   62  123 1    
   124   63  124 1    
   125   63  125 1    
   126   63  126 1    
   127   64   65 am   BACKBONE|DICT|INTERRES
   128   64  127 1    
   129   65   66 2    
@<TRIPOS>SUBSTRUCTURE
     1 UNK         1 GROUP             0       ****    0 ROOT    
