@<TRIPOS>MOLECULE
3R135
127   129    1
SMALL
USER_CHARGES


@<TRIPOS>ATOM
      1 CA        -85.3936   25.4903  -71.3311 C.3       0 UNK        -0.1998 
      2 C         -84.6621   26.1999  -72.4607 C.2       0 UNK         0.4909 
      3 O         -85.2333   26.3931  -73.5348 O.2       0 UNK        -0.5240 
      4 N         -83.4068   26.5986  -72.2230 N.am      1 UNK        -0.4739 
      5 CA        -82.5174   27.2200  -73.2087 C.3       1 UNK         0.0864 
      6 C6        -81.3117   27.9378  -72.5478 C.3       11 UNK        -0.0881 
      7 S7        -80.5023   26.9999  -71.2030 S.3       11 UNK        -0.2682 
      8 C8        -79.5361   28.3070  -70.3842 C.3       11 UNK         0.0289 
      9 C9        -78.2951   28.6781  -71.1830 C.ar      11 UNK        -0.0687 
     10 C10       -78.3671   29.6442  -72.1909 C.ar      11 UNK        -0.0823 
     11 C11       -77.2320   29.9897  -72.9305 C.ar      11 UNK        -0.0830 
     12 C12       -76.0091   29.3835  -72.6297 C.ar      11 UNK        -0.1021 
     13 C13       -75.9239   28.4181  -71.6229 C.ar      11 UNK        -0.0753 
     14 C14       -77.0699   28.0643  -70.9056 C.ar      11 UNK        -0.0933 
     15 C15       -74.5880   27.7667  -71.3143 C.3       11 UNK         0.0166 
     16 S16       -73.6193   28.8118  -70.1848 S.3       11 UNK        -0.2615 
     17 C17       -71.9132   28.3398  -70.6230 C.3       11 UNK        -0.0865 
     18 CA        -71.2206   29.4149  -71.5005 C.3       10 UNK         0.0862 
     19 C         -69.7047   29.1071  -71.6416 C.2       10 UNK         0.5551 
     20 N         -68.8787   29.6432  -70.7540 N.am      10 UNK        -0.7319 
     21 O         -69.2801   28.3547  -72.5163 O.2       10 UNK        -0.5018 
     22 N         -71.8812   29.5501  -72.8064 N.am      10 UNK        -0.4509 
     23 C         -71.6546   30.5236  -73.6947 C.2       10 UNK         0.4899 
     24 O         -70.9423   31.5039  -73.4711 O.2       10 UNK        -0.4839 
     25 CA        -72.3157   30.3428  -75.0765 C.3       9 UNK         0.0222 
     26 CB        -72.1043   31.5548  -76.0026 C.3       9 UNK        -0.1966 
     27 N         -71.8129   29.1364  -75.7420 N.am      9 UNK        -0.4218 
     28 C         -72.2244   27.8927  -75.4690 C.2       9 UNK         0.5020 
     29 O         -73.1055   27.6351  -74.6483 O.2       9 UNK        -0.5274 
     30 CA        -71.4857   26.7460  -76.1623 C.3       8 UNK         0.0270 
     31 CB        -70.2996   26.2824  -75.2925 C.3       8 UNK        -0.1976 
     32 N         -72.4271   25.6507  -76.3869 N.am      8 UNK        -0.4313 
     33 C         -72.2104   24.5921  -77.1775 C.2       8 UNK         0.5041 
     34 O         -71.1517   24.3836  -77.7727 O.2       8 UNK        -0.5577 
     35 CA        -73.3795   23.6105  -77.3672 C.3       7 UNK         0.0284 
     36 CB        -73.5972   22.7556  -76.1080 C.3       7 UNK        -0.1958 
     37 N         -74.6243   24.2882  -77.7340 N.am      7 UNK        -0.4454 
     38 C         -74.8209   24.9601  -78.8789 C.2       7 UNK         0.5089 
     39 O         -74.0020   25.0101  -79.7972 O.2       7 UNK        -0.5125 
     40 CA        -76.1510   25.7221  -79.0231 C.3       6 UNK         0.0408 
     41 CB        -77.2284   24.8183  -79.6399 C.3       6 UNK        -0.1791 
     42 N         -76.6327   26.2736  -77.7541 N.am      6 UNK        -0.4762 
     43 C         -76.0000   27.2261  -77.0509 C.2       6 UNK         0.5007 
     44 O         -74.9733   27.7853  -77.4363 O.2       6 UNK        -0.5032 
     45 CA        -76.6050   27.5970  -75.6837 C.3       5 UNK         0.0783 
     46 C46       -77.6172   28.7671  -75.8042 C.3       11 UNK        -0.0857 
     47 S47       -76.7714   30.3815  -75.6718 S.3       11 UNK        -0.2512 
     48 C48       -77.3389   31.0142  -74.0548 C.3       11 UNK         0.0225 
     49 N         -77.1907   26.4260  -75.0268 N.am      5 UNK        -0.4615 
     50 C         -76.4758   25.4762  -74.4075 C.2       4 UNK         0.5053 
     51 O         -75.2505   25.4886  -74.3110 O.2       4 UNK        -0.5105 
     52 CA        -77.2559   24.2837  -73.8312 C.3       4 UNK         0.0263 
     53 CB        -77.8362   24.6368  -72.4557 C.3       4 UNK        -0.1981 
     54 N         -78.3268   23.8235  -74.7180 N.am      4 UNK        -0.4224 
     55 C         -78.1136   23.2844  -75.9265 C.2       3 UNK         0.4895 
     56 O         -76.9951   23.0923  -76.4027 O.2       3 UNK        -0.5091 
     57 CA        -79.3510   22.9279  -76.7660 C.3       3 UNK         0.0250 
     58 CB        -79.8222   21.5016  -76.4410 C.3       3 UNK        -0.1996 
     59 N         -80.4823   23.8528  -76.6389 N.am      3 UNK        -0.4254 
     60 C         -80.4541   25.1857  -76.7881 C.2       2 UNK         0.5004 
     61 O         -79.4234   25.8427  -76.9435 O.2       2 UNK        -0.5226 
     62 CA        -81.8077   25.9186  -76.7786 C.3       2 UNK         0.0269 
     63 CB        -83.0189   25.0042  -77.0776 C.3       2 UNK        -0.1926 
     64 N         -82.0380   26.6813  -75.5466 N.am      2 UNK        -0.4687 
     65 C         -82.0812   26.2087  -74.2913 C.2       1 UNK         0.5165 
     66 O         -81.8125   25.0453  -73.9782 O.2       1 UNK        -0.5079 
     67 H67       -85.6860   24.4886  -71.6450 H         1 UNK         0.0900 
     68 H68       -86.2949   26.0409  -71.0630 H         1 UNK         0.0900 
     69 H69       -84.7740   25.3988  -70.4390 H         1 UNK         0.0900 
     70 H70       -82.9698   26.3866  -71.3367 H         1 UNK         0.2959 
     71 H71       -83.1060   27.9895  -73.7143 H         1 UNK         0.1079 
     72 H72       -80.5631   28.2061  -73.2955 H         1 UNK         0.0837 
     73 H73       -81.6601   28.8827  -72.1280 H         1 UNK         0.0837 
     74 H74       -80.1614   29.1860  -70.2206 H         1 UNK         0.0685 
     75 H75       -79.2464   27.9553  -69.3929 H         1 UNK         0.0685 
     76 H76       -79.3133   30.1216  -72.4046 H         1 UNK         0.1434 
     77 H77       -75.1237   29.6525  -73.1892 H         1 UNK         0.1329 
     78 H78       -77.0067   27.3177  -70.1259 H         1 UNK         0.1335 
     79 H79       -74.7302   26.7814  -70.8679 H         1 UNK         0.0680 
     80 H80       -74.0442   27.6046  -72.2442 H         1 UNK         0.0680 
     81 H81       -71.3682   28.2057  -69.6864 H         1 UNK         0.1032 
     82 H82       -71.9026   27.3657  -71.1162 H         1 UNK         0.1032 
     83 H83       -71.3166   30.3775  -70.9934 H         1 UNK         0.0461 
     84 H84       -69.2184   30.2541  -70.0271 H         1 UNK         0.3453 
     85 H85       -67.8929   29.4423  -70.8187 H         1 UNK         0.3453 
     86 H86       -72.4356   28.7598  -73.1179 H         1 UNK         0.2984 
     87 H87       -73.3911   30.2385  -74.9153 H         1 UNK         0.0554 
     88 H88       -72.4918   32.4663  -75.5455 H         1 UNK         0.0847 
     89 H89       -72.6266   31.4240  -76.9506 H         1 UNK         0.0847 
     90 H90       -71.0485   31.7220  -76.2199 H         1 UNK         0.0847 
     91 H91       -71.0492   29.2651  -76.3905 H         1 UNK         0.3141 
     92 H92       -71.1203   27.0947  -77.1305 H         1 UNK         0.0743 
     93 H93       -70.6371   25.8949  -74.3302 H         1 UNK         0.0784 
     94 H94       -69.7168   25.5025  -75.7820 H         1 UNK         0.0784 
     95 H95       -69.6180   27.1089  -75.0870 H         1 UNK         0.0784 
     96 H96       -73.3216   25.7651  -75.9194 H         1 UNK         0.3213 
     97 H97       -73.1169   22.9383  -78.1871 H         1 UNK         0.0855 
     98 H98       -73.8990   23.3597  -75.2522 H         1 UNK         0.0814 
     99 H99       -72.6822   22.2307  -75.8305 H         1 UNK         0.0814 
    100 H100      -74.3671   22.0010  -76.2706 H         1 UNK         0.0814 
    101 H101      -75.3922   24.2267  -77.0737 H         1 UNK         0.3105 
    102 H102      -75.9840   26.5609  -79.7020 H         1 UNK         0.0547 
    103 H103      -76.9433   24.5095  -80.6463 H         1 UNK         0.0837 
    104 H104      -77.3725   23.9112  -79.0547 H         1 UNK         0.0837 
    105 H105      -78.1880   25.3300  -79.7156 H         1 UNK         0.0837 
    106 H106      -77.5138   25.9156  -77.3953 H         1 UNK         0.3020 
    107 H107      -75.7713   27.9206  -75.0555 H         1 UNK         0.1245 
    108 H108      -78.3751   28.7019  -75.0228 H         1 UNK         0.0781 
    109 H109      -78.1750   28.7277  -76.7423 H         1 UNK         0.0781 
    110 H110      -78.3676   31.3610  -74.1646 H         1 UNK         0.0836 
    111 H111      -76.7473   31.8922  -73.7924 H         1 UNK         0.0836 
    112 H112      -78.1851   26.2906  -75.1509 H         1 UNK         0.3022 
    113 H113      -76.5519   23.4585  -73.7018 H         1 UNK         0.0747 
    114 H114      -77.0502   24.9540  -71.7690 H         1 UNK         0.0793 
    115 H115      -78.5505   25.4549  -72.5311 H         1 UNK         0.0793 
    116 H116      -78.3430   23.7852  -72.0020 H         1 UNK         0.0793 
    117 H117      -79.2802   23.9625  -74.4108 H         1 UNK         0.3047 
    118 H118      -79.0478   22.9469  -77.8132 H         1 UNK         0.0822 
    119 H119      -80.6174   21.1816  -77.1146 H         1 UNK         0.0807 
    120 H120      -80.1947   21.4224  -75.4188 H         1 UNK         0.0807 
    121 H121      -79.0051   20.7862  -76.5467 H         1 UNK         0.0807 
    122 H122      -81.3836   23.4288  -76.4735 H         1 UNK         0.2946 
    123 H123      -81.7478   26.6486  -77.5879 H         1 UNK         0.1144 
    124 H124      -83.9283   25.5931  -77.1982 H         1 UNK         0.0793 
    125 H125      -83.2044   24.2821  -76.2817 H         1 UNK         0.0793 
    126 H126      -82.8763   24.4490  -78.0060 H         1 UNK         0.0793 
    127 H127      -82.2305   27.6634  -75.6888 H         1 UNK         0.2896 
@<TRIPOS>BOND
     1    1    2 1    
     2    1   67 1    
     3    1   68 1    
     4    1   69 1    
     5    2    3 2    
     6    2    4 am   BACKBONE|DICT|INTERRES
     7    4    5 1    
     8    4   70 1    
     9    5    6 1    
    10    5   65 1    
    11    5   71 1    
    12    6    7 1    
    13    6   72 1    
    14    6   73 1    
    15    7    8 1    
    16    8    9 1    
    17    8   74 1    
    18    8   75 1    
    19    9   10 ar   
    20    9   14 ar   
    21   10   11 ar   
    22   10   76 1    
    23   11   12 ar   
    24   11   48 1    
    25   12   13 ar   
    26   12   77 1    
    27   13   14 ar   
    28   13   15 1    
    29   14   78 1    
    30   15   16 1    
    31   15   79 1    
    32   15   80 1    
    33   16   17 1    
    34   17   18 1    
    35   17   81 1    
    36   17   82 1    
    37   18   19 1    
    38   18   22 1    
    39   18   83 1    
    40   19   20 am   BACKBONE|DICT|INTERRES
    41   19   21 2    
    42   20   84 1    
    43   20   85 1    
    44   22   23 am   BACKBONE|DICT|INTERRES
    45   22   86 1    
    46   23   24 2    
    47   23   25 1    
    48   25   26 1    
    49   25   27 1    
    50   25   87 1    
    51   26   88 1    
    52   26   89 1    
    53   26   90 1    
    54   27   28 am   BACKBONE|DICT|INTERRES
    55   27   91 1    
    56   28   29 2    
    57   28   30 1    
    58   30   31 1    
    59   30   32 1    
    60   30   92 1    
    61   31   93 1    
    62   31   94 1    
    63   31   95 1    
    64   32   33 am   BACKBONE|DICT|INTERRES
    65   32   96 1    
    66   33   34 2    
    67   33   35 1    
    68   35   36 1    
    69   35   37 1    
    70   35   97 1    
    71   36   98 1    
    72   36   99 1    
    73   36  100 1    
    74   37   38 am   BACKBONE|DICT|INTERRES
    75   37  101 1    
    76   38   39 2    
    77   38   40 1    
    78   40   41 1    
    79   40   42 1    
    80   40  102 1    
    81   41  103 1    
    82   41  104 1    
    83   41  105 1    
    84   42   43 am   BACKBONE|DICT|INTERRES
    85   42  106 1    
    86   43   44 2    
    87   43   45 1    
    88   45   46 1    
    89   45   49 1    
    90   45  107 1    
    91   46   47 1    
    92   46  108 1    
    93   46  109 1    
    94   47   48 1    
    95   48  110 1    
    96   48  111 1    
    97   49   50 am   BACKBONE|DICT|INTERRES
    98   49  112 1    
    99   50   51 2    
   100   50   52 1    
   101   52   53 1    
   102   52   54 1    
   103   52  113 1    
   104   53  114 1    
   105   53  115 1    
   106   53  116 1    
   107   54   55 am   BACKBONE|DICT|INTERRES
   108   54  117 1    
   109   55   56 2    
   110   55   57 1    
   111   57   58 1    
   112   57   59 1    
   113   57  118 1    
   114   58  119 1    
   115   58  120 1    
   116   58  121 1    
   117   59   60 am   BACKBONE|DICT|INTERRES
   118   59  122 1    
   119   60   61 2    
   120   60   62 1    
   121   62   63 1    
   122   62   64 1    
   123   62  123 1    
   124   63  124 1    
   125   63  125 1    
   126   63  126 1    
   127   64   65 am   BACKBONE|DICT|INTERRES
   128   64  127 1    
   129   65   66 2    
@<TRIPOS>SUBSTRUCTURE
     1 UNK         1 GROUP             0       ****    0 ROOT    
