@<TRIPOS>MOLECULE
3R135
127   129    1
SMALL
USER_CHARGES


@<TRIPOS>ATOM
      1 CA        -77.7116   23.5171  -77.3135 C.3       0 UNK        -0.1998 
      2 C         -78.1236   22.9932  -75.9462 C.2       0 UNK         0.4909 
      3 O         -78.0953   21.7839  -75.7176 O.2       0 UNK        -0.5240 
      4 N         -78.5222   23.8868  -75.0340 N.am      1 UNK        -0.4739 
      5 CA        -78.9601   23.5959  -73.6637 C.3       1 UNK         0.0864 
      6 C6        -78.7641   24.8230  -72.7297 C.3       11 UNK        -0.0881 
      7 S7        -77.0405   25.4201  -72.6086 S.3       11 UNK        -0.2682 
      8 C8        -77.0741   26.2026  -70.9576 C.3       11 UNK         0.0289 
      9 C9        -76.5738   27.6417  -70.9749 C.ar      11 UNK        -0.0687 
     10 C10       -77.2848   28.6303  -71.6639 C.ar      11 UNK        -0.0823 
     11 C11       -76.8384   29.9583  -71.6690 C.ar      11 UNK        -0.0830 
     12 C12       -75.6983   30.2962  -70.9350 C.ar      11 UNK        -0.1021 
     13 C13       -74.9791   29.3221  -70.2413 C.ar      11 UNK        -0.0753 
     14 C14       -75.4217   27.9959  -70.2651 C.ar      11 UNK        -0.0933 
     15 C15       -73.7336   29.7041  -69.4552 C.3       11 UNK         0.0166 
     16 S16       -72.2398   29.6444  -70.4944 S.3       11 UNK        -0.2615 
     17 C17       -72.0635   31.3632  -71.0903 C.3       11 UNK        -0.0865 
     18 CA        -72.6421   31.6281  -72.5069 C.3       10 UNK         0.0862 
     19 C         -72.3488   33.0941  -72.9324 C.2       10 UNK         0.5551 
     20 N         -73.2554   34.0183  -72.6451 N.am      10 UNK        -0.7319 
     21 O         -71.2878   33.4051  -73.4709 O.2       10 UNK        -0.5018 
     22 N         -72.1897   30.6325  -73.4895 N.am      10 UNK        -0.4509 
     23 C         -72.5944   30.5574  -74.7634 C.2       10 UNK         0.4899 
     24 O         -73.4071   31.3269  -75.2767 O.2       10 UNK        -0.4839 
     25 CA        -72.0409   29.3979  -75.6059 C.3       9 UNK         0.0222 
     26 CB        -70.5889   29.6477  -76.0586 C.3       9 UNK        -0.1966 
     27 N         -72.2236   28.0947  -74.9577 N.am      9 UNK        -0.4218 
     28 C         -71.5775   27.5632  -73.9095 C.2       9 UNK         0.5020 
     29 O         -70.6200   28.1008  -73.3521 O.2       9 UNK        -0.5274 
     30 CA        -72.0946   26.2186  -73.3687 C.3       8 UNK         0.0270 
     31 CB        -72.8926   26.4335  -72.0757 C.3       8 UNK        -0.1976 
     32 N         -72.9620   25.5271  -74.3246 N.am      8 UNK        -0.4313 
     33 C         -72.6727   24.3614  -74.9151 C.2       8 UNK         0.5041 
     34 O         -71.6262   23.7365  -74.7354 O.2       8 UNK        -0.5577 
     35 CA        -73.7357   23.7804  -75.8630 C.3       7 UNK         0.0284 
     36 CB        -74.6739   22.8387  -75.0913 C.3       7 UNK        -0.1958 
     37 N         -74.5160   24.8110  -76.5573 N.am      7 UNK        -0.4454 
     38 C         -74.0191   25.5981  -77.5216 C.2       7 UNK         0.5089 
     39 O         -72.8775   25.4839  -77.9682 O.2       7 UNK        -0.5125 
     40 CA        -74.9240   26.7087  -78.0914 C.3       6 UNK         0.0408 
     41 CB        -75.5120   26.2672  -79.4418 C.3       6 UNK        -0.1791 
     42 N         -76.0186   27.1937  -77.2391 N.am      6 UNK        -0.4762 
     43 C         -75.9394   27.6375  -75.9747 C.2       6 UNK         0.5007 
     44 O         -74.9363   27.5023  -75.2746 O.2       6 UNK        -0.5032 
     45 CA        -77.1775   28.3550  -75.3938 C.3       5 UNK         0.0783 
     46 C46       -76.8270   29.7842  -74.9057 C.3       11 UNK        -0.0857 
     47 S47       -78.2556   30.5441  -74.0522 S.3       11 UNK        -0.2512 
     48 C48       -77.5677   31.0564  -72.4403 C.3       11 UNK         0.0225 
     49 N         -78.3014   28.3828  -76.3447 N.am      5 UNK        -0.4615 
     50 C         -79.2621   27.4562  -76.4015 C.2       4 UNK         0.5053 
     51 O         -79.2670   26.4606  -75.6799 O.2       4 UNK        -0.5105 
     52 CA        -80.3939   27.7007  -77.4218 C.3       4 UNK         0.0263 
     53 CB        -79.8544   27.7567  -78.8685 C.3       4 UNK        -0.1981 
     54 N         -81.5005   26.7362  -77.3004 N.am      4 UNK        -0.4224 
     55 C         -81.4643   25.4187  -77.5488 C.2       3 UNK         0.4895 
     56 O         -80.5032   24.8237  -78.0406 O.2       3 UNK        -0.5091 
     57 CA        -82.7061   24.6081  -77.1673 C.3       3 UNK         0.0250 
     58 CB        -83.5079   24.1846  -78.4111 C.3       3 UNK        -0.1996 
     59 N         -82.2254   23.4400  -76.4409 N.am      3 UNK        -0.4254 
     60 C         -82.9157   22.7003  -75.5666 C.2       2 UNK         0.5004 
     61 O         -84.1196   22.8364  -75.3459 O.2       2 UNK        -0.5226 
     62 CA        -82.1089   21.6510  -74.7776 C.3       2 UNK         0.0269 
     63 CB        -82.0561   20.3187  -75.5423 C.3       2 UNK        -0.1926 
     64 N         -80.7419   22.1010  -74.4873 N.am      2 UNK        -0.4687 
     65 C         -80.4312   23.1118  -73.6623 C.2       1 UNK         0.5165 
     66 O         -81.2693   23.6757  -72.9554 O.2       1 UNK        -0.5079 
     67 H67       -76.6968   23.2043  -77.5543 H         1 UNK         0.0900 
     68 H68       -77.7596   24.6047  -77.3612 H         1 UNK         0.0900 
     69 H69       -78.3763   23.1184  -78.0793 H         1 UNK         0.0900 
     70 H70       -78.6380   24.8635  -75.3062 H         1 UNK         0.2959 
     71 H71       -78.3557   22.7758  -73.2700 H         1 UNK         0.1079 
     72 H72       -79.3854   25.6589  -73.0574 H         1 UNK         0.0837 
     73 H73       -79.1060   24.5646  -71.7258 H         1 UNK         0.0837 
     74 H74       -76.4770   25.5932  -70.2777 H         1 UNK         0.0685 
     75 H75       -78.0855   26.2046  -70.5499 H         1 UNK         0.0685 
     76 H76       -78.1816   28.3586  -72.2033 H         1 UNK         0.1434 
     77 H77       -75.3643   31.3236  -70.9033 H         1 UNK         0.1329 
     78 H78       -74.8681   27.2395  -69.7258 H         1 UNK         0.1335 
     79 H79       -73.8505   30.6913  -69.0063 H         1 UNK         0.0680 
     80 H80       -73.6005   29.0118  -68.6225 H         1 UNK         0.0680 
     81 H81       -70.9958   31.5914  -71.0800 H         1 UNK         0.1032 
     82 H82       -72.5132   32.0427  -70.3642 H         1 UNK         0.1032 
     83 H83       -73.7244   31.5148  -72.4576 H         1 UNK         0.0461 
     84 H84       -73.0720   34.9768  -72.8978 H         1 UNK         0.3453 
     85 H85       -74.1235   33.7793  -72.1930 H         1 UNK         0.3453 
     86 H86       -71.5347   29.9335  -73.1561 H         1 UNK         0.2984 
     87 H87       -72.6520   29.3483  -76.5088 H         1 UNK         0.0554 
     88 H88       -70.2187   28.8277  -76.6738 H         1 UNK         0.0847 
     89 H89       -69.9077   29.7706  -75.2165 H         1 UNK         0.0847 
     90 H90       -70.5239   30.5576  -76.6564 H         1 UNK         0.0847 
     91 H91       -73.0793   27.6268  -75.2414 H         1 UNK         0.3141 
     92 H92       -71.2205   25.6087  -73.1317 H         1 UNK         0.0743 
     93 H93       -73.7156   27.1312  -72.2338 H         1 UNK         0.0784 
     94 H94       -73.3114   25.4992  -71.7016 H         1 UNK         0.0784 
     95 H95       -72.2571   26.8399  -71.2892 H         1 UNK         0.0784 
     96 H96       -73.8429   25.9804  -74.5464 H         1 UNK         0.3213 
     97 H97       -73.2080   23.1876  -76.6138 H         1 UNK         0.0855 
     98 H98       -75.3349   23.3828  -74.4154 H         1 UNK         0.0814 
     99 H99       -74.1067   22.1284  -74.4877 H         1 UNK         0.0814 
    100 H100      -75.2868   22.2492  -75.7715 H         1 UNK         0.0814 
    101 H101      -75.4514   24.9922  -76.2258 H         1 UNK         0.3105 
    102 H102      -74.2756   27.5679  -78.2744 H         1 UNK         0.0547 
    103 H103      -74.7269   25.9314  -80.1211 H         1 UNK         0.0837 
    104 H104      -76.2154   25.4420  -79.3260 H         1 UNK         0.0837 
    105 H105      -76.0329   27.0863  -79.9378 H         1 UNK         0.0837 
    106 H106      -76.9021   27.3359  -77.7058 H         1 UNK         0.3020 
    107 H107      -77.4632   27.7716  -74.5157 H         1 UNK         0.1245 
    108 H108      -76.5404   30.4227  -75.7433 H         1 UNK         0.0781 
    109 H109      -75.9658   29.7670  -74.2347 H         1 UNK         0.0781 
    110 H110      -78.3798   31.4369  -71.8197 H         1 UNK         0.0836 
    111 H111      -76.8977   31.8989  -72.6198 H         1 UNK         0.0836 
    112 H112      -78.3631   29.1979  -76.9378 H         1 UNK         0.3022 
    113 H113      -80.8231   28.6754  -77.1844 H         1 UNK         0.0747 
    114 H114      -80.6656   27.8639  -79.5886 H         1 UNK         0.0793 
    115 H115      -79.1881   28.6077  -79.0118 H         1 UNK         0.0793 
    116 H116      -79.2924   26.8600  -79.1321 H         1 UNK         0.0793 
    117 H117      -82.3399   27.1084  -76.8782 H         1 UNK         0.3047 
    118 H118      -83.3412   25.2023  -76.5066 H         1 UNK         0.0822 
    119 H119      -83.8482   25.0567  -78.9706 H         1 UNK         0.0807 
    120 H120      -84.3924   23.6089  -78.1378 H         1 UNK         0.0807 
    121 H121      -82.9075   23.5749  -79.0876 H         1 UNK         0.0807 
    122 H122      -81.2344   23.2678  -76.5522 H         1 UNK         0.2946 
    123 H123      -82.6240   21.4857  -73.8285 H         1 UNK         0.1144 
    124 H124      -83.0611   19.9536  -75.7587 H         1 UNK         0.0793 
    125 H125      -81.5506   19.5477  -74.9606 H         1 UNK         0.0793 
    126 H126      -81.5327   20.4185  -76.4941 H         1 UNK         0.0793 
    127 H127      -79.9858   21.6915  -75.0278 H         1 UNK         0.2896 
@<TRIPOS>BOND
     1    1    2 1    
     2    1   67 1    
     3    1   68 1    
     4    1   69 1    
     5    2    3 2    
     6    2    4 am   BACKBONE|DICT|INTERRES
     7    4    5 1    
     8    4   70 1    
     9    5    6 1    
    10    5   65 1    
    11    5   71 1    
    12    6    7 1    
    13    6   72 1    
    14    6   73 1    
    15    7    8 1    
    16    8    9 1    
    17    8   74 1    
    18    8   75 1    
    19    9   10 ar   
    20    9   14 ar   
    21   10   11 ar   
    22   10   76 1    
    23   11   12 ar   
    24   11   48 1    
    25   12   13 ar   
    26   12   77 1    
    27   13   14 ar   
    28   13   15 1    
    29   14   78 1    
    30   15   16 1    
    31   15   79 1    
    32   15   80 1    
    33   16   17 1    
    34   17   18 1    
    35   17   81 1    
    36   17   82 1    
    37   18   19 1    
    38   18   22 1    
    39   18   83 1    
    40   19   20 am   BACKBONE|DICT|INTERRES
    41   19   21 2    
    42   20   84 1    
    43   20   85 1    
    44   22   23 am   BACKBONE|DICT|INTERRES
    45   22   86 1    
    46   23   24 2    
    47   23   25 1    
    48   25   26 1    
    49   25   27 1    
    50   25   87 1    
    51   26   88 1    
    52   26   89 1    
    53   26   90 1    
    54   27   28 am   BACKBONE|DICT|INTERRES
    55   27   91 1    
    56   28   29 2    
    57   28   30 1    
    58   30   31 1    
    59   30   32 1    
    60   30   92 1    
    61   31   93 1    
    62   31   94 1    
    63   31   95 1    
    64   32   33 am   BACKBONE|DICT|INTERRES
    65   32   96 1    
    66   33   34 2    
    67   33   35 1    
    68   35   36 1    
    69   35   37 1    
    70   35   97 1    
    71   36   98 1    
    72   36   99 1    
    73   36  100 1    
    74   37   38 am   BACKBONE|DICT|INTERRES
    75   37  101 1    
    76   38   39 2    
    77   38   40 1    
    78   40   41 1    
    79   40   42 1    
    80   40  102 1    
    81   41  103 1    
    82   41  104 1    
    83   41  105 1    
    84   42   43 am   BACKBONE|DICT|INTERRES
    85   42  106 1    
    86   43   44 2    
    87   43   45 1    
    88   45   46 1    
    89   45   49 1    
    90   45  107 1    
    91   46   47 1    
    92   46  108 1    
    93   46  109 1    
    94   47   48 1    
    95   48  110 1    
    96   48  111 1    
    97   49   50 am   BACKBONE|DICT|INTERRES
    98   49  112 1    
    99   50   51 2    
   100   50   52 1    
   101   52   53 1    
   102   52   54 1    
   103   52  113 1    
   104   53  114 1    
   105   53  115 1    
   106   53  116 1    
   107   54   55 am   BACKBONE|DICT|INTERRES
   108   54  117 1    
   109   55   56 2    
   110   55   57 1    
   111   57   58 1    
   112   57   59 1    
   113   57  118 1    
   114   58  119 1    
   115   58  120 1    
   116   58  121 1    
   117   59   60 am   BACKBONE|DICT|INTERRES
   118   59  122 1    
   119   60   61 2    
   120   60   62 1    
   121   62   63 1    
   122   62   64 1    
   123   62  123 1    
   124   63  124 1    
   125   63  125 1    
   126   63  126 1    
   127   64   65 am   BACKBONE|DICT|INTERRES
   128   64  127 1    
   129   65   66 2    
@<TRIPOS>SUBSTRUCTURE
     1 UNK         1 GROUP             0       ****    0 ROOT    
