@<TRIPOS>MOLECULE
3R135
127   129    1
SMALL
USER_CHARGES


@<TRIPOS>ATOM
      1 CA        -82.5285   27.6906  -69.9613 C.3       0 UNK        -0.1998 
      2 C         -83.1358   27.3285  -71.3083 C.2       0 UNK         0.4909 
      3 O         -84.1285   26.6022  -71.3593 O.2       0 UNK        -0.5240 
      4 N         -82.5442   27.8287  -72.4009 N.am      1 UNK        -0.4739 
      5 CA        -82.9667   27.5661  -73.7836 C.3       1 UNK         0.0864 
      6 C6        -82.4563   28.6653  -74.7529 C.3       11 UNK        -0.0881 
      7 S7        -80.6368   28.7470  -74.8900 S.3       11 UNK        -0.2682 
      8 C8        -80.2259   30.1057  -73.7569 C.3       11 UNK         0.0289 
      9 C9        -78.8091   29.9434  -73.2321 C.ar      11 UNK        -0.0687 
     10 C10       -78.5416   28.9991  -72.2354 C.ar      11 UNK        -0.0823 
     11 C11       -77.2450   28.8343  -71.7419 C.ar      11 UNK        -0.0830 
     12 C12       -76.2153   29.6339  -72.2436 C.ar      11 UNK        -0.1021 
     13 C13       -76.4675   30.5730  -73.2476 C.ar      11 UNK        -0.0753 
     14 C14       -77.7668   30.7246  -73.7407 C.ar      11 UNK        -0.0933 
     15 C15       -75.3228   31.4005  -73.8056 C.3       11 UNK         0.0166 
     16 S16       -74.3626   30.4038  -74.9807 S.3       11 UNK        -0.2615 
     17 C17       -72.6799   31.0930  -74.8193 C.3       11 UNK        -0.0865 
     18 CA        -71.7962   30.3677  -73.7648 C.3       10 UNK         0.0862 
     19 C         -72.0592   30.8927  -72.3207 C.2       10 UNK         0.5551 
     20 N         -72.4875   30.0660  -71.3741 N.am      10 UNK        -0.7319 
     21 O         -71.8615   32.0758  -72.0553 O.2       10 UNK        -0.5018 
     22 N         -71.8390   28.9028  -73.9206 N.am      10 UNK        -0.4509 
     23 C         -70.9409   28.0510  -73.4080 C.2       10 UNK         0.4899 
     24 O         -69.9169   28.4016  -72.8214 O.2       10 UNK        -0.4839 
     25 CA        -71.2398   26.5547  -73.5617 C.3       9 UNK         0.0222 
     26 CB        -72.2341   26.0944  -72.4847 C.3       9 UNK        -0.1966 
     27 N         -71.7684   26.2458  -74.8922 N.am      9 UNK        -0.4218 
     28 C         -71.0019   25.8570  -75.9210 C.2       9 UNK         0.5020 
     29 O         -69.7818   25.6991  -75.8487 O.2       9 UNK        -0.5274 
     30 CA        -71.7045   25.5860  -77.2603 C.3       8 UNK         0.0270 
     31 CB        -72.3948   24.2127  -77.2462 C.3       8 UNK        -0.1976 
     32 N         -72.6797   26.6095  -77.6283 N.am      8 UNK        -0.4313 
     33 C         -72.4149   27.8895  -77.9115 C.2       8 UNK         0.5041 
     34 O         -71.2853   28.3782  -77.8743 O.2       8 UNK        -0.5577 
     35 CA        -73.6018   28.7844  -78.3189 C.3       7 UNK         0.0284 
     36 CB        -73.8423   28.7247  -79.8399 C.3       7 UNK        -0.1958 
     37 N         -74.8440   28.5449  -77.5690 N.am      7 UNK        -0.4454 
     38 C         -75.6264   27.4592  -77.5440 C.2       7 UNK         0.5089 
     39 O         -75.4200   26.4418  -78.2084 O.2       7 UNK        -0.5125 
     40 CA        -76.8212   27.5084  -76.5782 C.3       6 UNK         0.0408 
     41 CB        -78.1303   27.3117  -77.3594 C.3       6 UNK        -0.1791 
     42 N         -76.7456   26.4999  -75.5179 N.am      6 UNK        -0.4762 
     43 C         -75.7044   26.2528  -74.7050 C.2       6 UNK         0.5007 
     44 O         -74.6102   26.8179  -74.7759 O.2       6 UNK        -0.5032 
     45 CA        -75.9145   25.1448  -73.6571 C.3       5 UNK         0.0783 
     46 C46       -76.7848   25.6150  -72.4626 C.3       11 UNK        -0.0857 
     47 S47       -75.8048   26.5074  -71.2101 S.3       11 UNK        -0.2512 
     48 C48       -76.9595   27.8039  -70.6579 C.3       11 UNK         0.0225 
     49 N         -76.4855   23.9609  -74.2998 N.am      5 UNK        -0.4615 
     50 C         -75.7716   22.9209  -74.7515 C.2       4 UNK         0.5053 
     51 O         -74.5513   22.8249  -74.6235 O.2       4 UNK        -0.5105 
     52 CA        -76.5358   21.7763  -75.4443 C.3       4 UNK         0.0263 
     53 CB        -76.7154   20.5936  -74.4785 C.3       4 UNK        -0.1981 
     54 N         -77.8487   22.1805  -75.9506 N.am      4 UNK        -0.4224 
     55 C         -78.0480   22.9327  -77.0420 C.2       3 UNK         0.4895 
     56 O         -77.1490   23.2815  -77.8058 O.2       3 UNK        -0.5091 
     57 CA        -79.4932   23.3872  -77.3222 C.3       3 UNK         0.0250 
     58 CB        -80.1495   22.4725  -78.3691 C.3       3 UNK        -0.1996 
     59 N         -80.3509   23.4519  -76.1312 N.am      3 UNK        -0.4254 
     60 C         -80.1440   24.2521  -75.0765 C.2       2 UNK         0.5004 
     61 O         -79.1685   24.9983  -74.9604 O.2       2 UNK        -0.5226 
     62 CA        -81.1547   24.1534  -73.9264 C.3       2 UNK         0.0269 
     63 CB        -80.4967   23.5258  -72.6862 C.3       2 UNK        -0.1926 
     64 N         -81.6639   25.4774  -73.5793 N.am      2 UNK        -0.4687 
     65 C         -82.6014   26.1429  -74.2699 C.2       1 UNK         0.5165 
     66 O         -83.1803   25.6731  -75.2513 O.2       1 UNK        -0.5079 
     67 H67       -81.6694   28.3532  -70.0643 H         1 UNK         0.0900 
     68 H68       -82.2020   26.7895  -69.4428 H         1 UNK         0.0900 
     69 H69       -83.2694   28.1920  -69.3391 H         1 UNK         0.0900 
     70 H70       -81.7342   28.4215  -72.3035 H         1 UNK         0.2959 
     71 H71       -84.0583   27.6104  -73.8013 H         1 UNK         0.1079 
     72 H72       -82.8609   28.4975  -75.7529 H         1 UNK         0.0837 
     73 H73       -82.8410   29.6398  -74.4477 H         1 UNK         0.0837 
     74 H74       -80.3440   31.0566  -74.2788 H         1 UNK         0.0685 
     75 H75       -80.9205   30.1274  -72.9168 H         1 UNK         0.0685 
     76 H76       -79.3440   28.3858  -71.8508 H         1 UNK         0.1434 
     77 H77       -75.2092   29.5082  -71.8685 H         1 UNK         0.1329 
     78 H78       -77.9651   31.4451  -74.5224 H         1 UNK         0.1335 
     79 H79       -75.6926   32.2957  -74.3075 H         1 UNK         0.0680 
     80 H80       -74.6936   31.7436  -72.9846 H         1 UNK         0.0680 
     81 H81       -72.7329   32.1676  -74.6333 H         1 UNK         0.1032 
     82 H82       -72.2038   30.9974  -75.7964 H         1 UNK         0.1032 
     83 H83       -70.7672   30.6644  -73.9774 H         1 UNK         0.0461 
     84 H84       -72.6425   30.4195  -70.4434 H         1 UNK         0.3453 
     85 H85       -72.6384   29.0926  -71.5791 H         1 UNK         0.3453 
     86 H86       -72.6716   28.5369  -74.3622 H         1 UNK         0.2984 
     87 H87       -70.3089   26.0076  -73.3979 H         1 UNK         0.0554 
     88 H88       -73.1722   26.6454  -72.5391 H         1 UNK         0.0847 
     89 H89       -71.8254   26.2499  -71.4854 H         1 UNK         0.0847 
     90 H90       -72.4605   25.0324  -72.5801 H         1 UNK         0.0847 
     91 H91       -72.7679   26.3755  -75.0327 H         1 UNK         0.3141 
     92 H92       -70.9369   25.5716  -78.0369 H         1 UNK         0.0743 
     93 H93       -73.2229   24.1876  -76.5371 H         1 UNK         0.0784 
     94 H94       -72.7910   23.9577  -78.2293 H         1 UNK         0.0784 
     95 H95       -71.6965   23.4240  -76.9627 H         1 UNK         0.0784 
     96 H96       -73.6492   26.3145  -77.7284 H         1 UNK         0.3213 
     97 H97       -73.3104   29.8075  -78.0751 H         1 UNK         0.0855 
     98 H98       -72.9399   29.0027  -80.3860 H         1 UNK         0.0814 
     99 H99       -74.6301   29.4138  -80.1440 H         1 UNK         0.0814 
    100 H100      -74.1242   27.7249  -80.1712 H         1 UNK         0.0814 
    101 H101      -75.0667   29.2755  -76.9031 H         1 UNK         0.3105 
    102 H102      -76.8546   28.4837  -76.0880 H         1 UNK         0.0547 
    103 H103      -78.2897   28.1271  -78.0657 H         1 UNK         0.0837 
    104 H104      -78.1197   26.3826  -77.9300 H         1 UNK         0.0837 
    105 H105      -78.9936   27.2785  -76.6977 H         1 UNK         0.0837 
    106 H106      -77.5981   25.9669  -75.3647 H         1 UNK         0.3020 
    107 H107      -74.9280   24.8823  -73.2687 H         1 UNK         0.1245 
    108 H108      -77.2165   24.7516  -71.9541 H         1 UNK         0.0781 
    109 H109      -77.6338   26.2153  -72.7953 H         1 UNK         0.0781 
    110 H110      -76.5280   28.3124  -69.7946 H         1 UNK         0.0836 
    111 H111      -77.8800   27.3347  -70.3071 H         1 UNK         0.0836 
    112 H112      -77.4790   24.0023  -74.4955 H         1 UNK         0.3022 
    113 H113      -75.9280   21.4405  -76.2875 H         1 UNK         0.0747 
    114 H114      -77.1945   19.7473  -74.9713 H         1 UNK         0.0793 
    115 H115      -75.7512   20.2449  -74.1055 H         1 UNK         0.0793 
    116 H116      -77.3199   20.8662  -73.6123 H         1 UNK         0.0793 
    117 H117      -78.6519   21.9174  -75.3989 H         1 UNK         0.3047 
    118 H118      -79.4384   24.3947  -77.7383 H         1 UNK         0.0822 
    119 H119      -81.1363   22.8379  -78.6539 H         1 UNK         0.0807 
    120 H120      -80.2607   21.4516  -78.0015 H         1 UNK         0.0807 
    121 H121      -79.5491   22.4273  -79.2791 H         1 UNK         0.0807 
    122 H122      -81.1727   22.8644  -76.1415 H         1 UNK         0.2946 
    123 H123      -81.9932   23.5222  -74.2301 H         1 UNK         0.1144 
    124 H124      -80.1122   22.5293  -72.9077 H         1 UNK         0.0793 
    125 H125      -81.2115   23.4215  -71.8697 H         1 UNK         0.0793 
    126 H126      -79.6608   24.1250  -72.3233 H         1 UNK         0.0793 
    127 H127      -81.2118   25.9543  -72.8142 H         1 UNK         0.2896 
@<TRIPOS>BOND
     1    1    2 1    
     2    1   67 1    
     3    1   68 1    
     4    1   69 1    
     5    2    3 2    
     6    2    4 am   BACKBONE|DICT|INTERRES
     7    4    5 1    
     8    4   70 1    
     9    5    6 1    
    10    5   65 1    
    11    5   71 1    
    12    6    7 1    
    13    6   72 1    
    14    6   73 1    
    15    7    8 1    
    16    8    9 1    
    17    8   74 1    
    18    8   75 1    
    19    9   10 ar   
    20    9   14 ar   
    21   10   11 ar   
    22   10   76 1    
    23   11   12 ar   
    24   11   48 1    
    25   12   13 ar   
    26   12   77 1    
    27   13   14 ar   
    28   13   15 1    
    29   14   78 1    
    30   15   16 1    
    31   15   79 1    
    32   15   80 1    
    33   16   17 1    
    34   17   18 1    
    35   17   81 1    
    36   17   82 1    
    37   18   19 1    
    38   18   22 1    
    39   18   83 1    
    40   19   20 am   BACKBONE|DICT|INTERRES
    41   19   21 2    
    42   20   84 1    
    43   20   85 1    
    44   22   23 am   BACKBONE|DICT|INTERRES
    45   22   86 1    
    46   23   24 2    
    47   23   25 1    
    48   25   26 1    
    49   25   27 1    
    50   25   87 1    
    51   26   88 1    
    52   26   89 1    
    53   26   90 1    
    54   27   28 am   BACKBONE|DICT|INTERRES
    55   27   91 1    
    56   28   29 2    
    57   28   30 1    
    58   30   31 1    
    59   30   32 1    
    60   30   92 1    
    61   31   93 1    
    62   31   94 1    
    63   31   95 1    
    64   32   33 am   BACKBONE|DICT|INTERRES
    65   32   96 1    
    66   33   34 2    
    67   33   35 1    
    68   35   36 1    
    69   35   37 1    
    70   35   97 1    
    71   36   98 1    
    72   36   99 1    
    73   36  100 1    
    74   37   38 am   BACKBONE|DICT|INTERRES
    75   37  101 1    
    76   38   39 2    
    77   38   40 1    
    78   40   41 1    
    79   40   42 1    
    80   40  102 1    
    81   41  103 1    
    82   41  104 1    
    83   41  105 1    
    84   42   43 am   BACKBONE|DICT|INTERRES
    85   42  106 1    
    86   43   44 2    
    87   43   45 1    
    88   45   46 1    
    89   45   49 1    
    90   45  107 1    
    91   46   47 1    
    92   46  108 1    
    93   46  109 1    
    94   47   48 1    
    95   48  110 1    
    96   48  111 1    
    97   49   50 am   BACKBONE|DICT|INTERRES
    98   49  112 1    
    99   50   51 2    
   100   50   52 1    
   101   52   53 1    
   102   52   54 1    
   103   52  113 1    
   104   53  114 1    
   105   53  115 1    
   106   53  116 1    
   107   54   55 am   BACKBONE|DICT|INTERRES
   108   54  117 1    
   109   55   56 2    
   110   55   57 1    
   111   57   58 1    
   112   57   59 1    
   113   57  118 1    
   114   58  119 1    
   115   58  120 1    
   116   58  121 1    
   117   59   60 am   BACKBONE|DICT|INTERRES
   118   59  122 1    
   119   60   61 2    
   120   60   62 1    
   121   62   63 1    
   122   62   64 1    
   123   62  123 1    
   124   63  124 1    
   125   63  125 1    
   126   63  126 1    
   127   64   65 am   BACKBONE|DICT|INTERRES
   128   64  127 1    
   129   65   66 2    
@<TRIPOS>SUBSTRUCTURE
     1 UNK         1 GROUP             0       ****    0 ROOT    
