@<TRIPOS>MOLECULE
3R135
127   129    1
SMALL
USER_CHARGES


@<TRIPOS>ATOM
      1 CA        -86.4890   29.4197  -75.9000 C.3       0 UNK        -0.1998 
      2 C         -85.0475   29.0341  -76.1962 C.2       0 UNK         0.4909 
      3 O         -84.6600   28.9663  -77.3630 O.2       0 UNK        -0.5240 
      4 N         -84.2502   28.7851  -75.1482 N.am      1 UNK        -0.4739 
      5 CA        -82.8450   28.3690  -75.2440 C.3       1 UNK         0.0864 
      6 C6        -82.1342   28.5177  -73.8744 C.3       11 UNK        -0.0881 
      7 S7        -80.3215   28.3953  -73.9965 S.3       11 UNK        -0.2682 
      8 C8        -79.8261   28.8159  -72.3004 C.3       11 UNK         0.0289 
      9 C9        -78.3636   28.4702  -72.0701 C.ar      11 UNK        -0.0687 
     10 C10       -78.0145   27.3443  -71.3198 C.ar      11 UNK        -0.0823 
     11 C11       -76.6713   27.0099  -71.1242 C.ar      11 UNK        -0.0830 
     12 C12       -75.6727   27.8063  -71.6915 C.ar      11 UNK        -0.1021 
     13 C13       -76.0107   28.9350  -72.4444 C.ar      11 UNK        -0.0753 
     14 C14       -77.3569   29.2674  -72.6216 C.ar      11 UNK        -0.0933 
     15 C15       -74.9305   29.7721  -73.1094 C.3       11 UNK         0.0166 
     16 S16       -74.1921   30.9732  -71.9591 S.3       11 UNK        -0.2615 
     17 C17       -72.6603   30.1143  -71.4542 C.3       11 UNK        -0.0865 
     18 CA        -71.4383   30.5513  -72.3076 C.3       10 UNK         0.0862 
     19 C         -70.1000   30.0092  -71.7230 C.2       10 UNK         0.5551 
     20 N         -69.2473   29.3407  -72.4919 N.am      10 UNK        -0.7319 
     21 O         -69.8221   30.2104  -70.5434 O.2       10 UNK        -0.5018 
     22 N         -71.6391   30.2236  -73.7268 N.am      10 UNK        -0.4509 
     23 C         -71.1931   30.9400  -74.7640 C.2       10 UNK         0.4899 
     24 O         -70.5987   32.0135  -74.6536 O.2       10 UNK        -0.4839 
     25 CA        -71.4587   30.3385  -76.1607 C.3       9 UNK         0.0222 
     26 CB        -70.5214   30.9120  -77.2443 C.3       9 UNK        -0.1966 
     27 N         -71.4324   28.8677  -76.1810 N.am      9 UNK        -0.4218 
     28 C         -70.4106   28.0729  -75.8150 C.2       9 UNK         0.5020 
     29 O         -69.3414   28.4996  -75.3765 O.2       9 UNK        -0.5274 
     30 CA        -70.6097   26.5478  -75.9028 C.3       8 UNK         0.0270 
     31 CB        -70.5388   25.9140  -74.5023 C.3       8 UNK        -0.1976 
     32 N         -71.8706   26.1670  -76.5449 N.am      8 UNK        -0.4313 
     33 C         -72.0627   26.1366  -77.8728 C.2       8 UNK         0.5041 
     34 O         -71.1722   26.3687  -78.6912 O.2       8 UNK        -0.5577 
     35 CA        -73.4778   25.8130  -78.3896 C.3       7 UNK         0.0284 
     36 CB        -73.5324   24.3791  -78.9409 C.3       7 UNK        -0.1958 
     37 N         -74.5344   25.9851  -77.3886 N.am      7 UNK        -0.4454 
     38 C         -74.9092   27.1607  -76.8597 C.2       7 UNK         0.5089 
     39 O         -74.3983   28.2394  -77.1633 O.2       7 UNK        -0.5125 
     40 CA        -75.9834   27.1154  -75.7567 C.3       6 UNK         0.0408 
     41 CB        -77.3841   27.2573  -76.3668 C.3       6 UNK        -0.1791 
     42 N         -75.9231   25.8968  -74.9425 N.am      6 UNK        -0.4762 
     43 C         -74.8520   25.5110  -74.2296 C.2       6 UNK         0.5007 
     44 O         -73.8363   26.1994  -74.1225 O.2       6 UNK        -0.5032 
     45 CA        -74.8558   24.0990  -73.6056 C.3       5 UNK         0.0783 
     46 C46       -74.8208   24.1247  -72.0549 C.3       11 UNK        -0.0857 
     47 S47       -76.4576   24.2542  -71.2515 S.3       11 UNK        -0.2512 
     48 C48       -76.3104   25.7916  -70.2906 C.3       11 UNK         0.0225 
     49 N         -75.9027   23.2152  -74.1300 N.am      5 UNK        -0.4615 
     50 C         -75.9880   22.7662  -75.3887 C.2       4 UNK         0.5053 
     51 O         -75.1711   23.0421  -76.2671 O.2       4 UNK        -0.5105 
     52 CA        -77.2098   21.8973  -75.7324 C.3       4 UNK         0.0263 
     53 CB        -76.8743   20.4079  -75.5556 C.3       4 UNK        -0.1981 
     54 N         -78.4043   22.2268  -74.9439 N.am      4 UNK        -0.4224 
     55 C         -79.0773   23.3818  -75.0378 C.2       3 UNK         0.4895 
     56 O         -78.7461   24.3106  -75.7769 O.2       3 UNK        -0.5091 
     57 CA        -80.3082   23.5387  -74.1407 C.3       3 UNK         0.0250 
     58 CB        -79.9851   24.4138  -72.9176 C.3       3 UNK        -0.1996 
     59 N         -81.3718   24.1680  -74.9180 N.am      3 UNK        -0.4254 
     60 C         -82.6649   23.8273  -74.8839 C.2       2 UNK         0.5004 
     61 O         -83.1187   22.9483  -74.1481 O.2       2 UNK        -0.5226 
     62 CA        -83.6110   24.6245  -75.8046 C.3       2 UNK         0.0269 
     63 CB        -85.0570   24.0934  -75.7786 C.3       2 UNK        -0.1926 
     64 N         -83.6251   26.0431  -75.4416 N.am      2 UNK        -0.4687 
     65 C         -82.6997   26.9389  -75.8123 C.2       1 UNK         0.5165 
     66 O         -81.7645   26.6672  -76.5673 O.2       1 UNK        -0.5079 
     67 H67       -86.6923   29.4499  -74.8297 H         1 UNK         0.0900 
     68 H68       -87.1702   28.7007  -76.3542 H         1 UNK         0.0900 
     69 H69       -86.7066   30.4040  -76.3139 H         1 UNK         0.0900 
     70 H70       -84.6244   28.8686  -74.2133 H         1 UNK         0.2959 
     71 H71       -82.3571   29.0427  -75.9526 H         1 UNK         0.1079 
     72 H72       -82.4955   27.7737  -73.1615 H         1 UNK         0.0837 
     73 H73       -82.3669   29.4927  -73.4424 H         1 UNK         0.0837 
     74 H74       -80.4607   28.2803  -71.5925 H         1 UNK         0.0685 
     75 H75       -79.9898   29.8802  -72.1254 H         1 UNK         0.0685 
     76 H76       -78.7880   26.7204  -70.8929 H         1 UNK         0.1434 
     77 H77       -74.6337   27.5394  -71.5603 H         1 UNK         0.1329 
     78 H78       -77.6260   30.1331  -73.2113 H         1 UNK         0.1335 
     79 H79       -74.1674   29.1168  -73.5302 H         1 UNK         0.0680 
     80 H80       -75.3494   30.3195  -73.9552 H         1 UNK         0.0680 
     81 H81       -72.4941   30.3515  -70.4016 H         1 UNK         0.1032 
     82 H82       -72.7982   29.0332  -71.4971 H         1 UNK         0.1032 
     83 H83       -71.3636   31.6369  -72.2202 H         1 UNK         0.0461 
     84 H84       -68.3866   29.0069  -72.0890 H         1 UNK         0.3453 
     85 H85       -69.4310   29.1851  -73.4768 H         1 UNK         0.3453 
     86 H86       -72.0867   29.3405  -73.9176 H         1 UNK         0.2984 
     87 H87       -72.4786   30.6243  -76.4222 H         1 UNK         0.0554 
     88 H88       -70.7409   30.4872  -78.2239 H         1 UNK         0.0847 
     89 H89       -69.4733   30.7120  -77.0192 H         1 UNK         0.0847 
     90 H90       -70.6348   31.9934  -77.3296 H         1 UNK         0.0847 
     91 H91       -72.2827   28.4274  -76.5143 H         1 UNK         0.3141 
     92 H92       -69.7824   26.1474  -76.4927 H         1 UNK         0.0743 
     93 H93       -69.5537   26.0642  -74.0584 H         1 UNK         0.0784 
     94 H94       -71.2664   26.3521  -73.8190 H         1 UNK         0.0784 
     95 H95       -70.7146   24.8388  -74.5397 H         1 UNK         0.0784 
     96 H96       -72.6561   25.9952  -75.9275 H         1 UNK         0.3213 
     97 H97       -73.6855   26.5022  -79.2110 H         1 UNK         0.0855 
     98 H98       -73.3117   23.6416  -78.1682 H         1 UNK         0.0814 
     99 H99       -72.8028   24.2403  -79.7400 H         1 UNK         0.0814 
    100 H100      -74.5137   24.1478  -79.3555 H         1 UNK         0.0814 
    101 H101      -74.9761   25.1385  -77.0479 H         1 UNK         0.3105 
    102 H102      -75.8148   27.9642  -75.0950 H         1 UNK         0.0547 
    103 H103      -77.6005   26.4572  -77.0757 H         1 UNK         0.0837 
    104 H104      -78.1540   27.2339  -75.5965 H         1 UNK         0.0837 
    105 H105      -77.4850   28.2037  -76.8992 H         1 UNK         0.0837 
    106 H106      -76.7218   25.2770  -74.9957 H         1 UNK         0.3020 
    107 H107      -73.9063   23.6641  -73.9273 H         1 UNK         0.1245 
    108 H108      -74.1536   24.9078  -71.6895 H         1 UNK         0.0781 
    109 H109      -74.3781   23.1922  -71.7016 H         1 UNK         0.0781 
    110 H110      -75.3070   25.8842  -69.8725 H         1 UNK         0.0836 
    111 H111      -76.9844   25.7307  -69.4347 H         1 UNK         0.0836 
    112 H112      -76.6250   22.9603  -73.4719 H         1 UNK         0.3022 
    113 H113      -77.4454   22.0712  -76.7847 H         1 UNK         0.0747 
    114 H114      -77.6992   19.7735  -75.8805 H         1 UNK         0.0793 
    115 H115      -76.0026   20.1316  -76.1508 H         1 UNK         0.0793 
    116 H116      -76.6498   20.1635  -74.5165 H         1 UNK         0.0793 
    117 H117      -78.7374   21.5158  -74.3081 H         1 UNK         0.3047 
    118 H118      -80.6262   22.5504  -73.8014 H         1 UNK         0.0822 
    119 H119      -79.2343   23.9391  -72.2865 H         1 UNK         0.0807 
    120 H120      -80.8690   24.5772  -72.3010 H         1 UNK         0.0807 
    121 H121      -79.5978   25.3910  -73.2111 H         1 UNK         0.0807 
    122 H122      -81.0705   24.8948  -75.5606 H         1 UNK         0.2946 
    123 H123      -83.2364   24.5157  -76.8254 H         1 UNK         0.1144 
    124 H124      -85.0922   23.0423  -76.0684 H         1 UNK         0.0793 
    125 H125      -85.6923   24.6407  -76.4753 H         1 UNK         0.0793 
    126 H126      -85.5011   24.1736  -74.7856 H         1 UNK         0.0793 
    127 H127      -84.3548   26.3426  -74.8113 H         1 UNK         0.2896 
@<TRIPOS>BOND
     1    1    2 1    
     2    1   67 1    
     3    1   68 1    
     4    1   69 1    
     5    2    3 2    
     6    2    4 am   BACKBONE|DICT|INTERRES
     7    4    5 1    
     8    4   70 1    
     9    5    6 1    
    10    5   65 1    
    11    5   71 1    
    12    6    7 1    
    13    6   72 1    
    14    6   73 1    
    15    7    8 1    
    16    8    9 1    
    17    8   74 1    
    18    8   75 1    
    19    9   10 ar   
    20    9   14 ar   
    21   10   11 ar   
    22   10   76 1    
    23   11   12 ar   
    24   11   48 1    
    25   12   13 ar   
    26   12   77 1    
    27   13   14 ar   
    28   13   15 1    
    29   14   78 1    
    30   15   16 1    
    31   15   79 1    
    32   15   80 1    
    33   16   17 1    
    34   17   18 1    
    35   17   81 1    
    36   17   82 1    
    37   18   19 1    
    38   18   22 1    
    39   18   83 1    
    40   19   20 am   BACKBONE|DICT|INTERRES
    41   19   21 2    
    42   20   84 1    
    43   20   85 1    
    44   22   23 am   BACKBONE|DICT|INTERRES
    45   22   86 1    
    46   23   24 2    
    47   23   25 1    
    48   25   26 1    
    49   25   27 1    
    50   25   87 1    
    51   26   88 1    
    52   26   89 1    
    53   26   90 1    
    54   27   28 am   BACKBONE|DICT|INTERRES
    55   27   91 1    
    56   28   29 2    
    57   28   30 1    
    58   30   31 1    
    59   30   32 1    
    60   30   92 1    
    61   31   93 1    
    62   31   94 1    
    63   31   95 1    
    64   32   33 am   BACKBONE|DICT|INTERRES
    65   32   96 1    
    66   33   34 2    
    67   33   35 1    
    68   35   36 1    
    69   35   37 1    
    70   35   97 1    
    71   36   98 1    
    72   36   99 1    
    73   36  100 1    
    74   37   38 am   BACKBONE|DICT|INTERRES
    75   37  101 1    
    76   38   39 2    
    77   38   40 1    
    78   40   41 1    
    79   40   42 1    
    80   40  102 1    
    81   41  103 1    
    82   41  104 1    
    83   41  105 1    
    84   42   43 am   BACKBONE|DICT|INTERRES
    85   42  106 1    
    86   43   44 2    
    87   43   45 1    
    88   45   46 1    
    89   45   49 1    
    90   45  107 1    
    91   46   47 1    
    92   46  108 1    
    93   46  109 1    
    94   47   48 1    
    95   48  110 1    
    96   48  111 1    
    97   49   50 am   BACKBONE|DICT|INTERRES
    98   49  112 1    
    99   50   51 2    
   100   50   52 1    
   101   52   53 1    
   102   52   54 1    
   103   52  113 1    
   104   53  114 1    
   105   53  115 1    
   106   53  116 1    
   107   54   55 am   BACKBONE|DICT|INTERRES
   108   54  117 1    
   109   55   56 2    
   110   55   57 1    
   111   57   58 1    
   112   57   59 1    
   113   57  118 1    
   114   58  119 1    
   115   58  120 1    
   116   58  121 1    
   117   59   60 am   BACKBONE|DICT|INTERRES
   118   59  122 1    
   119   60   61 2    
   120   60   62 1    
   121   62   63 1    
   122   62   64 1    
   123   62  123 1    
   124   63  124 1    
   125   63  125 1    
   126   63  126 1    
   127   64   65 am   BACKBONE|DICT|INTERRES
   128   64  127 1    
   129   65   66 2    
@<TRIPOS>SUBSTRUCTURE
     1 UNK         1 GROUP             0       ****    0 ROOT    
