@<TRIPOS>MOLECULE
3R135
127   129    1
SMALL
USER_CHARGES


@<TRIPOS>ATOM
      1 CA        -84.5002   25.2684  -75.2102 C.3       0 UNK        -0.1998 
      2 C         -83.5958   26.4479  -74.8878 C.2       0 UNK         0.4909 
      3 O         -83.1557   27.1503  -75.7990 O.2       0 UNK        -0.5240 
      4 N         -83.3096   26.6735  -73.5984 N.am      1 UNK        -0.4739 
      5 CA        -82.3882   27.7112  -73.1248 C.3       1 UNK         0.0864 
      6 C6        -82.4841   27.8957  -71.5904 C.3       11 UNK        -0.0881 
      7 S7        -81.9041   29.5391  -71.0449 S.3       11 UNK        -0.2682 
      8 C8        -80.6571   29.1176  -69.7848 C.3       11 UNK         0.0289 
      9 C9        -79.3292   28.7111  -70.4065 C.ar      11 UNK        -0.0687 
     10 C10       -79.0297   27.3625  -70.6178 C.ar      11 UNK        -0.0823 
     11 C11       -77.8167   26.9759  -71.1969 C.ar      11 UNK        -0.0830 
     12 C12       -76.8849   27.9663  -71.5330 C.ar      11 UNK        -0.1021 
     13 C13       -77.1791   29.3194  -71.3480 C.ar      11 UNK        -0.0753 
     14 C14       -78.4001   29.6871  -70.7771 C.ar      11 UNK        -0.0933 
     15 C15       -76.1982   30.3772  -71.8278 C.3       11 UNK         0.0166 
     16 S16       -74.6431   30.3406  -70.8872 S.3       11 UNK        -0.2615 
     17 C17       -73.6288   31.4898  -71.8827 C.3       11 UNK        -0.0865 
     18 CA        -72.5305   30.7994  -72.7428 C.3       10 UNK         0.0862 
     19 C         -71.3892   30.1649  -71.9033 C.2       10 UNK         0.5551 
     20 N         -70.6450   30.9695  -71.1567 N.am      10 UNK        -0.7319 
     21 O         -71.1668   28.9547  -71.9247 O.2       10 UNK        -0.5018 
     22 N         -73.0626   29.8319  -73.7085 N.am      10 UNK        -0.4509 
     23 C         -73.7046   30.1229  -74.8441 C.2       10 UNK         0.4899 
     24 O         -74.0413   31.2640  -75.1644 O.2       10 UNK        -0.4839 
     25 CA        -74.0033   28.9327  -75.7819 C.3       9 UNK         0.0222 
     26 CB        -74.4245   29.3715  -77.1992 C.3       9 UNK        -0.1966 
     27 N         -72.9072   27.9551  -75.8540 N.am      9 UNK        -0.4218 
     28 C         -71.6214   28.1798  -76.1739 C.2       9 UNK         0.5020 
     29 O         -71.1706   29.2792  -76.4976 O.2       9 UNK        -0.5274 
     30 CA        -70.6682   26.9768  -76.1145 C.3       8 UNK         0.0270 
     31 CB        -70.3008   26.6494  -74.6569 C.3       8 UNK        -0.1976 
     32 N         -71.2493   25.7921  -76.7495 N.am      8 UNK        -0.4313 
     33 C         -70.6777   25.0804  -77.7307 C.2       8 UNK         0.5041 
     34 O         -69.5660   25.3288  -78.2004 O.2       8 UNK        -0.5577 
     35 CA        -71.4661   23.8771  -78.2896 C.3       7 UNK         0.0284 
     36 CB        -70.9664   22.5689  -77.6549 C.3       7 UNK        -0.1958 
     37 N         -72.9155   23.9792  -78.0973 N.am      7 UNK        -0.4454 
     38 C         -73.7005   24.8921  -78.6839 C.2       7 UNK         0.5089 
     39 O         -73.3030   25.6790  -79.5434 O.2       7 UNK        -0.5125 
     40 CA        -75.1713   24.9659  -78.2293 C.3       6 UNK         0.0408 
     41 CB        -76.0756   24.2950  -79.2755 C.3       6 UNK        -0.1791 
     42 N         -75.4936   24.4315  -76.8946 N.am      6 UNK        -0.4762 
     43 C         -74.8994   24.7519  -75.7314 C.2       6 UNK         0.5007 
     44 O         -73.8393   25.3761  -75.6688 O.2       6 UNK        -0.5032 
     45 CA        -75.6013   24.3445  -74.4169 C.3       5 UNK         0.0783 
     46 C46       -75.4158   25.4465  -73.3396 C.3       11 UNK        -0.0857 
     47 S47       -75.8816   24.9188  -71.6555 S.3       11 UNK        -0.2512 
     48 C48       -77.6088   25.4927  -71.5098 C.3       11 UNK         0.0225 
     49 N         -77.0234   24.1040  -74.6686 N.am      5 UNK        -0.4615 
     50 C         -77.6901   22.9635  -74.4540 C.2       4 UNK         0.5053 
     51 O         -77.1617   21.9347  -74.0332 O.2       4 UNK        -0.5105 
     52 CA        -79.2038   22.9615  -74.7563 C.3       4 UNK         0.0263 
     53 CB        -80.0243   22.8462  -73.4606 C.3       4 UNK        -0.1981 
     54 N         -79.6434   24.1475  -75.5002 N.am      4 UNK        -0.4224 
     55 C         -79.4401   24.3208  -76.8159 C.2       3 UNK         0.4895 
     56 O         -78.9542   23.4544  -77.5421 O.2       3 UNK        -0.5091 
     57 CA        -79.7882   25.6925  -77.4266 C.3       3 UNK         0.0250 
     58 CB        -81.1506   25.6331  -78.1340 C.3       3 UNK        -0.1996 
     59 N         -79.7833   26.7934  -76.4574 N.am      3 UNK        -0.4254 
     60 C         -78.7019   27.2070  -75.7776 C.2       2 UNK         0.5004 
     61 O         -77.5783   26.7358  -75.9426 O.2       2 UNK        -0.5226 
     62 CA        -78.8997   28.2731  -74.6855 C.3       2 UNK         0.0269 
     63 CB        -78.4152   29.6487  -75.1686 C.3       2 UNK        -0.1926 
     64 N         -80.2690   28.3849  -74.1706 N.am      2 UNK        -0.4687 
     65 C         -80.9518   27.3910  -73.5846 C.2       1 UNK         0.5165 
     66 O         -80.5076   26.2487  -73.4374 O.2       1 UNK        -0.5079 
     67 H67       -85.3774   25.6079  -75.7601 H         1 UNK         0.0900 
     68 H68       -83.9677   24.5466  -75.8289 H         1 UNK         0.0900 
     69 H69       -84.8407   24.7577  -74.3097 H         1 UNK         0.0900 
     70 H70       -83.6716   26.0485  -72.8926 H         1 UNK         0.2959 
     71 H71       -82.7038   28.6430  -73.6003 H         1 UNK         0.1079 
     72 H72       -81.9629   27.0972  -71.0605 H         1 UNK         0.0837 
     73 H73       -83.5262   27.8218  -71.2751 H         1 UNK         0.0837 
     74 H74       -80.5043   29.9870  -69.1434 H         1 UNK         0.0685 
     75 H75       -81.0386   28.3289  -69.1344 H         1 UNK         0.0685 
     76 H76       -79.7581   26.6077  -70.3555 H         1 UNK         0.1434 
     77 H77       -75.9321   27.7092  -71.9676 H         1 UNK         0.1329 
     78 H78       -78.6371   30.7327  -70.6349 H         1 UNK         0.1335 
     79 H79       -76.6351   31.3745  -71.7562 H         1 UNK         0.0680 
     80 H80       -75.9897   30.2053  -72.8844 H         1 UNK         0.0680 
     81 H81       -74.2787   32.0807  -72.5295 H         1 UNK         0.1032 
     82 H82       -73.1784   32.2156  -71.2040 H         1 UNK         0.1032 
     83 H83       -72.0426   31.5772  -73.3338 H         1 UNK         0.0461 
     84 H84       -69.9000   30.5723  -70.6059 H         1 UNK         0.3453 
     85 H85       -70.8057   31.9643  -71.1357 H         1 UNK         0.3453 
     86 H86       -72.7892   28.8766  -73.5197 H         1 UNK         0.2984 
     87 H87       -74.8498   28.4049  -75.3392 H         1 UNK         0.0554 
     88 H88       -75.3095   30.0081  -77.1669 H         1 UNK         0.0847 
     89 H89       -74.6689   28.5115  -77.8227 H         1 UNK         0.0847 
     90 H90       -73.6348   29.9345  -77.6977 H         1 UNK         0.0847 
     91 H91       -73.1825   26.9993  -75.6334 H         1 UNK         0.3141 
     92 H92       -69.7536   27.2717  -76.6334 H         1 UNK         0.0743 
     93 H93       -69.8823   27.5220  -74.1529 H         1 UNK         0.0784 
     94 H94       -71.1688   26.3251  -74.0812 H         1 UNK         0.0784 
     95 H95       -69.5533   25.8575  -74.6078 H         1 UNK         0.0784 
     96 H96       -72.1793   25.5192  -76.4391 H         1 UNK         0.3213 
     97 H97       -71.2728   23.8328  -79.3636 H         1 UNK         0.0855 
     98 H98       -71.1463   22.5471  -76.5792 H         1 UNK         0.0814 
     99 H99       -69.8931   22.4468  -77.8076 H         1 UNK         0.0814 
    100 H100      -71.4548   21.7001  -78.0967 H         1 UNK         0.0814 
    101 H101      -73.3320   23.3769  -77.4023 H         1 UNK         0.3105 
    102 H102      -75.4277   26.0269  -78.2011 H         1 UNK         0.0547 
    103 H103      -77.1241   24.5321  -79.1038 H         1 UNK         0.0837 
    104 H104      -75.8375   24.6379  -80.2836 H         1 UNK         0.0837 
    105 H105      -75.9679   23.2099  -79.2662 H         1 UNK         0.0837 
    106 H106      -76.3504   23.8987  -76.8370 H         1 UNK         0.3020 
    107 H107      -75.1099   23.4303  -74.0767 H         1 UNK         0.1245 
    108 H108      -75.9760   26.3350  -73.6321 H         1 UNK         0.0781 
    109 H109      -74.3725   25.7586  -73.2651 H         1 UNK         0.0781 
    110 H110      -78.0830   24.8926  -70.7317 H         1 UNK         0.0836 
    111 H111      -78.1395   25.2654  -72.4330 H         1 UNK         0.0836 
    112 H112      -77.5173   24.8992  -75.0603 H         1 UNK         0.3022 
    113 H113      -79.4091   22.0752  -75.3605 H         1 UNK         0.0747 
    114 H114      -81.0913   22.7784  -73.6733 H         1 UNK         0.0793 
    115 H115      -79.7488   21.9509  -72.9016 H         1 UNK         0.0793 
    116 H116      -79.8706   23.7004  -72.8019 H         1 UNK         0.0793 
    117 H117      -80.0333   24.9079  -74.9512 H         1 UNK         0.3047 
    118 H118      -79.0255   25.9166  -78.1753 H         1 UNK         0.0822 
    119 H119      -81.1460   24.8804  -78.9237 H         1 UNK         0.0807 
    120 H120      -81.4025   26.5869  -78.5978 H         1 UNK         0.0807 
    121 H121      -81.9528   25.3723  -77.4435 H         1 UNK         0.0807 
    122 H122      -80.6776   27.2163  -76.2446 H         1 UNK         0.2946 
    123 H123      -78.2697   27.9679  -73.8508 H         1 UNK         0.1144 
    124 H124      -78.4373   30.3816  -74.3617 H         1 UNK         0.0793 
    125 H125      -79.0270   30.0276  -75.9880 H         1 UNK         0.0793 
    126 H126      -77.3855   29.5966  -75.5257 H         1 UNK         0.0793 
    127 H127      -80.7079   29.2905  -74.2566 H         1 UNK         0.2896 
@<TRIPOS>BOND
     1    1    2 1    
     2    1   67 1    
     3    1   68 1    
     4    1   69 1    
     5    2    3 2    
     6    2    4 am   BACKBONE|DICT|INTERRES
     7    4    5 1    
     8    4   70 1    
     9    5    6 1    
    10    5   65 1    
    11    5   71 1    
    12    6    7 1    
    13    6   72 1    
    14    6   73 1    
    15    7    8 1    
    16    8    9 1    
    17    8   74 1    
    18    8   75 1    
    19    9   10 ar   
    20    9   14 ar   
    21   10   11 ar   
    22   10   76 1    
    23   11   12 ar   
    24   11   48 1    
    25   12   13 ar   
    26   12   77 1    
    27   13   14 ar   
    28   13   15 1    
    29   14   78 1    
    30   15   16 1    
    31   15   79 1    
    32   15   80 1    
    33   16   17 1    
    34   17   18 1    
    35   17   81 1    
    36   17   82 1    
    37   18   19 1    
    38   18   22 1    
    39   18   83 1    
    40   19   20 am   BACKBONE|DICT|INTERRES
    41   19   21 2    
    42   20   84 1    
    43   20   85 1    
    44   22   23 am   BACKBONE|DICT|INTERRES
    45   22   86 1    
    46   23   24 2    
    47   23   25 1    
    48   25   26 1    
    49   25   27 1    
    50   25   87 1    
    51   26   88 1    
    52   26   89 1    
    53   26   90 1    
    54   27   28 am   BACKBONE|DICT|INTERRES
    55   27   91 1    
    56   28   29 2    
    57   28   30 1    
    58   30   31 1    
    59   30   32 1    
    60   30   92 1    
    61   31   93 1    
    62   31   94 1    
    63   31   95 1    
    64   32   33 am   BACKBONE|DICT|INTERRES
    65   32   96 1    
    66   33   34 2    
    67   33   35 1    
    68   35   36 1    
    69   35   37 1    
    70   35   97 1    
    71   36   98 1    
    72   36   99 1    
    73   36  100 1    
    74   37   38 am   BACKBONE|DICT|INTERRES
    75   37  101 1    
    76   38   39 2    
    77   38   40 1    
    78   40   41 1    
    79   40   42 1    
    80   40  102 1    
    81   41  103 1    
    82   41  104 1    
    83   41  105 1    
    84   42   43 am   BACKBONE|DICT|INTERRES
    85   42  106 1    
    86   43   44 2    
    87   43   45 1    
    88   45   46 1    
    89   45   49 1    
    90   45  107 1    
    91   46   47 1    
    92   46  108 1    
    93   46  109 1    
    94   47   48 1    
    95   48  110 1    
    96   48  111 1    
    97   49   50 am   BACKBONE|DICT|INTERRES
    98   49  112 1    
    99   50   51 2    
   100   50   52 1    
   101   52   53 1    
   102   52   54 1    
   103   52  113 1    
   104   53  114 1    
   105   53  115 1    
   106   53  116 1    
   107   54   55 am   BACKBONE|DICT|INTERRES
   108   54  117 1    
   109   55   56 2    
   110   55   57 1    
   111   57   58 1    
   112   57   59 1    
   113   57  118 1    
   114   58  119 1    
   115   58  120 1    
   116   58  121 1    
   117   59   60 am   BACKBONE|DICT|INTERRES
   118   59  122 1    
   119   60   61 2    
   120   60   62 1    
   121   62   63 1    
   122   62   64 1    
   123   62  123 1    
   124   63  124 1    
   125   63  125 1    
   126   63  126 1    
   127   64   65 am   BACKBONE|DICT|INTERRES
   128   64  127 1    
   129   65   66 2    
@<TRIPOS>SUBSTRUCTURE
     1 UNK         1 GROUP             0       ****    0 ROOT    
