@<TRIPOS>MOLECULE
3R135
127   129    1
SMALL
USER_CHARGES


@<TRIPOS>ATOM
      1 CA        -80.6254   22.9199  -70.6487 C.3       0 UNK        -0.1998 
      2 C         -80.1147   24.0604  -71.5147 C.2       0 UNK         0.4909 
      3 O         -79.1718   23.8646  -72.2832 O.2       0 UNK        -0.5240 
      4 N         -80.7417   25.2431  -71.4095 N.am      1 UNK        -0.4739 
      5 CA        -80.3940   26.4803  -72.1277 C.3       1 UNK         0.0864 
      6 C6        -79.0859   27.1279  -71.5954 C.3       11 UNK        -0.0881 
      7 S7        -79.3340   27.9955  -70.0120 S.3       11 UNK        -0.2682 
      8 C8        -79.8503   29.6568  -70.5691 C.3       11 UNK         0.0289 
      9 C9        -78.8243   30.3214  -71.4794 C.ar      11 UNK        -0.0687 
     10 C10       -79.1182   30.5492  -72.8280 C.ar      11 UNK        -0.0823 
     11 C11       -78.1785   31.1559  -73.6665 C.ar      11 UNK        -0.0830 
     12 C12       -76.9326   31.5191  -73.1471 C.ar      11 UNK        -0.1021 
     13 C13       -76.6152   31.2872  -71.8047 C.ar      11 UNK        -0.0753 
     14 C14       -77.5808   30.7065  -70.9716 C.ar      11 UNK        -0.0933 
     15 C15       -75.2316   31.7107  -71.3076 C.3       11 UNK         0.0166 
     16 S16       -74.6977   31.0358  -69.6943 S.3       11 UNK        -0.2615 
     17 C17       -74.6187   29.2317  -69.9762 C.3       11 UNK        -0.0865 
     18 CA        -73.3785   28.7983  -70.8098 C.3       10 UNK         0.0862 
     19 C         -72.7863   27.4347  -70.3335 C.2       10 UNK         0.5551 
     20 N         -72.5292   26.4615  -71.2004 N.am      10 UNK        -0.7319 
     21 O         -72.5373   27.2585  -69.1433 O.2       10 UNK        -0.5018 
     22 N         -73.6883   28.8374  -72.2463 N.am      10 UNK        -0.4509 
     23 C         -72.8038   29.0686  -73.2194 C.2       10 UNK         0.4899 
     24 O         -71.6374   29.4229  -73.0361 O.2       10 UNK        -0.4839 
     25 CA        -73.3247   28.8504  -74.6491 C.3       9 UNK         0.0222 
     26 CB        -73.6130   30.1933  -75.3382 C.3       9 UNK        -0.1966 
     27 N         -72.3987   28.0659  -75.4691 N.am      9 UNK        -0.4218 
     28 C         -71.9447   26.8404  -75.1714 C.2       9 UNK         0.5020 
     29 O         -72.2754   26.2059  -74.1656 O.2       9 UNK        -0.5274 
     30 CA        -70.9780   26.2102  -76.1890 C.3       8 UNK         0.0270 
     31 CB        -69.9557   25.2794  -75.5112 C.3       8 UNK        -0.1976 
     32 N         -71.7186   25.4520  -77.1967 N.am      8 UNK        -0.4313 
     33 C         -72.4027   25.9858  -78.2170 C.2       8 UNK         0.5041 
     34 O         -72.4214   27.1937  -78.4636 O.2       8 UNK        -0.5577 
     35 CA        -73.1925   25.0267  -79.1229 C.3       7 UNK         0.0284 
     36 CB        -72.9923   23.5285  -78.8088 C.3       7 UNK        -0.1958 
     37 N         -74.6107   25.3549  -79.0155 N.am      7 UNK        -0.4454 
     38 C         -75.4780   25.4126  -80.0346 C.2       7 UNK         0.5089 
     39 O         -75.1663   25.1833  -81.2044 O.2       7 UNK        -0.5125 
     40 CA        -76.9472   25.7675  -79.7177 C.3       6 UNK         0.0408 
     41 CB        -77.8460   24.5322  -79.8878 C.3       6 UNK        -0.1791 
     42 N         -77.1429   26.3134  -78.3729 N.am      6 UNK        -0.4762 
     43 C         -76.7826   27.5461  -77.9864 C.2       6 UNK         0.5007 
     44 O         -76.3651   28.4009  -78.7679 O.2       6 UNK        -0.5032 
     45 CA        -76.8480   27.8618  -76.4740 C.3       5 UNK         0.0783 
     46 C46       -77.9739   28.8680  -76.1214 C.3       11 UNK        -0.0857 
     47 S47       -77.4378   30.5999  -76.3088 S.3       11 UNK        -0.2512 
     48 C48       -78.5236   31.4574  -75.1213 C.3       11 UNK         0.0225 
     49 N         -76.9081   26.6644  -75.6236 N.am      5 UNK        -0.4615 
     50 C         -75.9135   25.7762  -75.4927 C.2       4 UNK         0.5053 
     51 O         -74.8855   25.8136  -76.1625 O.2       4 UNK        -0.5105 
     52 CA        -76.1033   24.6481  -74.4710 C.3       4 UNK         0.0263 
     53 CB        -75.9554   25.1899  -73.0413 C.3       4 UNK        -0.1981 
     54 N         -77.3861   23.9588  -74.6263 N.am      4 UNK        -0.4224 
     55 C         -77.6873   23.1702  -75.6697 C.2       3 UNK         0.4895 
     56 O         -76.9230   22.9545  -76.6103 O.2       3 UNK        -0.5091 
     57 CA        -79.0763   22.5154  -75.6726 C.3       3 UNK         0.0250 
     58 CB        -79.1256   21.3135  -74.7146 C.3       3 UNK        -0.1996 
     59 N         -80.1234   23.4745  -75.3256 N.am      3 UNK        -0.4254 
     60 C         -80.6131   24.3889  -76.1748 C.2       2 UNK         0.5004 
     61 O         -80.2831   24.4716  -77.3576 O.2       2 UNK        -0.5226 
     62 CA        -81.6379   25.3914  -75.6134 C.3       2 UNK         0.0269 
     63 CB        -83.0701   24.8914  -75.8613 C.3       2 UNK        -0.1926 
     64 N         -81.4677   25.6851  -74.1860 N.am      2 UNK        -0.4687 
     65 C         -80.3831   26.2704  -73.6580 C.2       1 UNK         0.5165 
     66 O         -79.3999   26.5909  -74.3256 O.2       1 UNK        -0.5079 
     67 H67       -80.9432   22.0872  -71.2756 H         1 UNK         0.0900 
     68 H68       -79.8316   22.5674  -69.9909 H         1 UNK         0.0900 
     69 H69       -81.4701   23.2227  -70.0303 H         1 UNK         0.0900 
     70 H70       -81.5129   25.3285  -70.7617 H         1 UNK         0.2959 
     71 H71       -81.2101   27.1834  -71.9539 H         1 UNK         0.1079 
     72 H72       -78.3256   26.3646  -71.4349 H         1 UNK         0.0837 
     73 H73       -78.6473   27.8262  -72.3078 H         1 UNK         0.0837 
     74 H74       -80.8176   29.5792  -71.0675 H         1 UNK         0.0685 
     75 H75       -80.0100   30.2866  -69.6929 H         1 UNK         0.0685 
     76 H76       -80.0828   30.2609  -73.2229 H         1 UNK         0.1434 
     77 H77       -76.2082   31.9929  -73.7953 H         1 UNK         0.1329 
     78 H78       -77.3734   30.5345  -69.9252 H         1 UNK         0.1335 
     79 H79       -75.2232   32.7986  -71.2302 H         1 UNK         0.0680 
     80 H80       -74.4789   31.4581  -72.0547 H         1 UNK         0.0680 
     81 H81       -74.6041   28.7856  -68.9800 H         1 UNK         0.1032 
     82 H82       -75.5446   28.8736  -70.4281 H         1 UNK         0.1032 
     83 H83       -72.5793   29.5168  -70.6172 H         1 UNK         0.0461 
     84 H84       -72.1424   25.5977  -70.8563 H         1 UNK         0.3453 
     85 H85       -72.6487   26.5864  -72.1996 H         1 UNK         0.3453 
     86 H86       -74.6210   28.5480  -72.4992 H         1 UNK         0.2984 
     87 H87       -74.2558   28.2843  -74.5940 H         1 UNK         0.0554 
     88 H88       -74.3372   30.7758  -74.7683 H         1 UNK         0.0847 
     89 H89       -74.0292   30.0510  -76.3358 H         1 UNK         0.0847 
     90 H90       -72.7107   30.7989  -75.4336 H         1 UNK         0.0847 
     91 H91       -72.1103   28.4736  -76.3480 H         1 UNK         0.3141 
     92 H92       -70.4225   27.0108  -76.6824 H         1 UNK         0.0743 
     93 H93       -69.3957   25.8129  -74.7420 H         1 UNK         0.0784 
     94 H94       -70.4368   24.4266  -75.0302 H         1 UNK         0.0784 
     95 H95       -69.2322   24.8945  -76.2302 H         1 UNK         0.0784 
     96 H96       -71.8008   24.4585  -77.0383 H         1 UNK         0.3213 
     97 H97       -72.8417   25.2138  -80.1401 H         1 UNK         0.0855 
     98 H98       -73.3595   23.2665  -77.8152 H         1 UNK         0.0814 
     99 H99       -71.9410   23.2442  -78.8711 H         1 UNK         0.0814 
    100 H100      -73.5292   22.9079  -79.5266 H         1 UNK         0.0814 
    101 H101      -74.9237   25.5976  -78.0780 H         1 UNK         0.3105 
    102 H102      -77.2645   26.5188  -80.4437 H         1 UNK         0.0547 
    103 H103      -78.8971   24.7836  -79.7457 H         1 UNK         0.0837 
    104 H104      -77.7484   24.1105  -80.8890 H         1 UNK         0.0837 
    105 H105      -77.5905   23.7459  -79.1766 H         1 UNK         0.0837 
    106 H106      -77.4736   25.6701  -77.6667 H         1 UNK         0.3020 
    107 H107      -75.8926   28.3351  -76.2430 H         1 UNK         0.1245 
    108 H108      -78.2634   28.7455  -75.0780 H         1 UNK         0.0781 
    109 H109      -78.8793   28.6901  -76.7047 H         1 UNK         0.0781 
    110 H110      -79.5613   31.2009  -75.3402 H         1 UNK         0.0836 
    111 H111      -78.4366   32.5324  -75.2844 H         1 UNK         0.0836 
    112 H112      -77.7606   26.5473  -75.0765 H         1 UNK         0.3022 
    113 H113      -75.3103   23.9144  -74.6325 H         1 UNK         0.0747 
    114 H114      -76.1368   24.4147  -72.2965 H         1 UNK         0.0793 
    115 H115      -74.9465   25.5713  -72.8772 H         1 UNK         0.0793 
    116 H116      -76.6450   26.0103  -72.8521 H         1 UNK         0.0793 
    117 H117      -78.0629   24.0613  -73.8736 H         1 UNK         0.3047 
    118 H118      -79.2663   22.1436  -76.6823 H         1 UNK         0.0822 
    119 H119      -78.3698   20.5738  -74.9820 H         1 UNK         0.0807 
    120 H120      -80.0941   20.8149  -74.7547 H         1 UNK         0.0807 
    121 H121      -78.9417   21.6050  -73.6803 H         1 UNK         0.0807 
    122 H122      -80.4108   23.5104  -74.3577 H         1 UNK         0.2946 
    123 H123      -81.5002   26.3261  -76.1622 H         1 UNK         0.1144 
    124 H124      -83.8085   25.6346  -75.5597 H         1 UNK         0.0793 
    125 H125      -83.2767   23.9698  -75.3157 H         1 UNK         0.0793 
    126 H126      -83.2340   24.6868  -76.9204 H         1 UNK         0.0793 
    127 H127      -82.2246   25.4230  -73.5705 H         1 UNK         0.2896 
@<TRIPOS>BOND
     1    1    2 1    
     2    1   67 1    
     3    1   68 1    
     4    1   69 1    
     5    2    3 2    
     6    2    4 am   BACKBONE|DICT|INTERRES
     7    4    5 1    
     8    4   70 1    
     9    5    6 1    
    10    5   65 1    
    11    5   71 1    
    12    6    7 1    
    13    6   72 1    
    14    6   73 1    
    15    7    8 1    
    16    8    9 1    
    17    8   74 1    
    18    8   75 1    
    19    9   10 ar   
    20    9   14 ar   
    21   10   11 ar   
    22   10   76 1    
    23   11   12 ar   
    24   11   48 1    
    25   12   13 ar   
    26   12   77 1    
    27   13   14 ar   
    28   13   15 1    
    29   14   78 1    
    30   15   16 1    
    31   15   79 1    
    32   15   80 1    
    33   16   17 1    
    34   17   18 1    
    35   17   81 1    
    36   17   82 1    
    37   18   19 1    
    38   18   22 1    
    39   18   83 1    
    40   19   20 am   BACKBONE|DICT|INTERRES
    41   19   21 2    
    42   20   84 1    
    43   20   85 1    
    44   22   23 am   BACKBONE|DICT|INTERRES
    45   22   86 1    
    46   23   24 2    
    47   23   25 1    
    48   25   26 1    
    49   25   27 1    
    50   25   87 1    
    51   26   88 1    
    52   26   89 1    
    53   26   90 1    
    54   27   28 am   BACKBONE|DICT|INTERRES
    55   27   91 1    
    56   28   29 2    
    57   28   30 1    
    58   30   31 1    
    59   30   32 1    
    60   30   92 1    
    61   31   93 1    
    62   31   94 1    
    63   31   95 1    
    64   32   33 am   BACKBONE|DICT|INTERRES
    65   32   96 1    
    66   33   34 2    
    67   33   35 1    
    68   35   36 1    
    69   35   37 1    
    70   35   97 1    
    71   36   98 1    
    72   36   99 1    
    73   36  100 1    
    74   37   38 am   BACKBONE|DICT|INTERRES
    75   37  101 1    
    76   38   39 2    
    77   38   40 1    
    78   40   41 1    
    79   40   42 1    
    80   40  102 1    
    81   41  103 1    
    82   41  104 1    
    83   41  105 1    
    84   42   43 am   BACKBONE|DICT|INTERRES
    85   42  106 1    
    86   43   44 2    
    87   43   45 1    
    88   45   46 1    
    89   45   49 1    
    90   45  107 1    
    91   46   47 1    
    92   46  108 1    
    93   46  109 1    
    94   47   48 1    
    95   48  110 1    
    96   48  111 1    
    97   49   50 am   BACKBONE|DICT|INTERRES
    98   49  112 1    
    99   50   51 2    
   100   50   52 1    
   101   52   53 1    
   102   52   54 1    
   103   52  113 1    
   104   53  114 1    
   105   53  115 1    
   106   53  116 1    
   107   54   55 am   BACKBONE|DICT|INTERRES
   108   54  117 1    
   109   55   56 2    
   110   55   57 1    
   111   57   58 1    
   112   57   59 1    
   113   57  118 1    
   114   58  119 1    
   115   58  120 1    
   116   58  121 1    
   117   59   60 am   BACKBONE|DICT|INTERRES
   118   59  122 1    
   119   60   61 2    
   120   60   62 1    
   121   62   63 1    
   122   62   64 1    
   123   62  123 1    
   124   63  124 1    
   125   63  125 1    
   126   63  126 1    
   127   64   65 am   BACKBONE|DICT|INTERRES
   128   64  127 1    
   129   65   66 2    
@<TRIPOS>SUBSTRUCTURE
     1 UNK         1 GROUP             0       ****    0 ROOT    
