@<TRIPOS>MOLECULE
3R135
127   129    1
SMALL
USER_CHARGES


@<TRIPOS>ATOM
      1 CA        -83.3815   25.7534  -70.7482 C.3       0 UNK        -0.1998 
      2 C         -81.9438   26.2634  -70.7708 C.2       0 UNK         0.4909 
      3 O         -81.1831   25.9682  -69.8523 O.2       0 UNK        -0.5240 
      4 N         -81.5174   27.0211  -71.7909 N.am      1 UNK        -0.4739 
      5 CA        -82.2940   27.4546  -72.9643 C.3       1 UNK         0.0864 
      6 C6        -81.8494   28.8528  -73.4666 C.3       11 UNK        -0.0881 
      7 S7        -82.0001   30.1192  -72.1563 S.3       11 UNK        -0.2682 
      8 C8        -80.4895   31.1223  -72.3836 C.3       11 UNK         0.0289 
      9 C9        -79.1767   30.3421  -72.3187 C.ar      11 UNK        -0.0687 
     10 C10       -79.0018   29.2576  -71.4487 C.ar      11 UNK        -0.0823 
     11 C11       -77.8048   28.5334  -71.4336 C.ar      11 UNK        -0.0830 
     12 C12       -76.7538   28.9506  -72.2565 C.ar      11 UNK        -0.1021 
     13 C13       -76.9008   30.0465  -73.1079 C.ar      11 UNK        -0.0753 
     14 C14       -78.1160   30.7326  -73.1420 C.ar      11 UNK        -0.0933 
     15 C15       -75.7485   30.4666  -74.0032 C.3       11 UNK         0.0166 
     16 S16       -74.6017   31.5811  -73.1404 S.3       11 UNK        -0.2615 
     17 C17       -73.3046   31.9074  -74.3948 C.3       11 UNK        -0.0865 
     18 CA        -72.8726   30.7069  -75.2998 C.3       10 UNK         0.0862 
     19 C         -71.7478   31.0921  -76.3080 C.2       10 UNK         0.5551 
     20 N         -71.9251   32.1736  -77.0564 N.am      10 UNK        -0.7319 
     21 O         -70.7265   30.4212  -76.4453 O.2       10 UNK        -0.5018 
     22 N         -72.5867   29.4751  -74.5433 N.am      10 UNK        -0.4509 
     23 C         -71.6847   29.3344  -73.5638 C.2       10 UNK         0.4899 
     24 O         -70.9368   30.2308  -73.1711 O.2       10 UNK        -0.4839 
     25 CA        -71.6184   27.9633  -72.8791 C.3       9 UNK         0.0222 
     26 CB        -72.6017   27.9079  -71.6990 C.3       9 UNK        -0.1966 
     27 N         -71.9044   26.8577  -73.7978 N.am      9 UNK        -0.4218 
     28 C         -70.9530   26.1435  -74.4134 C.2       9 UNK         0.5020 
     29 O         -69.7495   26.4011  -74.3497 O.2       9 UNK        -0.5274 
     30 CA        -71.4044   24.8940  -75.1830 C.3       8 UNK         0.0270 
     31 CB        -71.8187   23.7820  -74.2044 C.3       8 UNK        -0.1976 
     32 N         -72.4813   25.1431  -76.1432 N.am      8 UNK        -0.4313 
     33 C         -72.3046   25.7595  -77.3206 C.2       8 UNK         0.5041 
     34 O         -71.2384   26.2625  -77.6773 O.2       8 UNK        -0.5577 
     35 CA        -73.4994   25.7815  -78.2889 C.3       7 UNK         0.0284 
     36 CB        -73.6817   24.4082  -78.9561 C.3       7 UNK        -0.1958 
     37 N         -74.7490   26.1832  -77.6461 N.am      7 UNK        -0.4454 
     38 C         -75.0252   27.4313  -77.2464 C.2       7 UNK         0.5089 
     39 O         -74.2755   28.3908  -77.4212 O.2       7 UNK        -0.5125 
     40 CA        -76.3521   27.6407  -76.4956 C.3       6 UNK         0.0408 
     41 CB        -77.5268   27.7652  -77.4765 C.3       6 UNK        -0.1791 
     42 N         -76.6291   26.5914  -75.5115 N.am      6 UNK        -0.4762 
     43 C         -75.8240   26.2545  -74.4903 C.2       6 UNK         0.5007 
     44 O         -74.7540   26.8130  -74.2368 O.2       6 UNK        -0.5032 
     45 CA        -76.2558   25.0309  -73.6601 C.3       5 UNK         0.0783 
     46 C46       -77.3028   25.3928  -72.5729 C.3       11 UNK        -0.0857 
     47 S47       -76.5059   26.0318  -71.0591 S.3       11 UNK        -0.2512 
     48 C48       -77.6688   27.3294  -70.5001 C.3       11 UNK         0.0225 
     49 N         -76.7078   23.9400  -74.5307 N.am      5 UNK        -0.4615 
     50 C         -75.9038   23.2547  -75.3575 C.2       4 UNK         0.5053 
     51 O         -74.6950   23.4556  -75.4558 O.2       4 UNK        -0.5105 
     52 CA        -76.5617   22.1995  -76.2608 C.3       4 UNK         0.0263 
     53 CB        -76.8298   20.9042  -75.4782 C.3       4 UNK        -0.1981 
     54 N         -77.8048   22.6774  -76.8665 N.am      4 UNK        -0.4224 
     55 C         -77.8852   23.7008  -77.7297 C.2       3 UNK         0.4895 
     56 O         -76.9079   24.3056  -78.1681 O.2       3 UNK        -0.5091 
     57 CA        -79.2978   24.1577  -78.1344 C.3       3 UNK         0.0250 
     58 CB        -79.7695   23.4016  -79.3864 C.3       3 UNK        -0.1996 
     59 N         -80.2907   24.0069  -77.0645 N.am      3 UNK        -0.4254 
     60 C         -80.2228   24.6059  -75.8673 C.2       2 UNK         0.5004 
     61 O         -79.3043   25.3546  -75.5204 O.2       2 UNK        -0.5226 
     62 CA        -81.3220   24.2330  -74.8639 C.3       2 UNK         0.0269 
     63 CB        -80.9369   22.9493  -74.1093 C.3       2 UNK        -0.1926 
     64 N         -81.5255   25.3024  -73.8903 N.am      2 UNK        -0.4687 
     65 C         -82.2462   26.4117  -74.1040 C.2       1 UNK         0.5165 
     66 O         -82.8740   26.6199  -75.1432 O.2       1 UNK        -0.5079 
     67 H67       -83.5245   25.0543  -69.9244 H         1 UNK         0.0900 
     68 H68       -83.6324   25.2302  -71.6701 H         1 UNK         0.0900 
     69 H69       -84.0789   26.5788  -70.6078 H         1 UNK         0.0900 
     70 H70       -80.5620   27.3453  -71.7810 H         1 UNK         0.2959 
     71 H71       -83.3453   27.5440  -72.6855 H         1 UNK         0.1079 
     72 H72       -80.8252   28.8150  -73.8417 H         1 UNK         0.0837 
     73 H73       -82.4665   29.1748  -74.3077 H         1 UNK         0.0837 
     74 H74       -80.5729   31.6386  -73.3413 H         1 UNK         0.0685 
     75 H75       -80.4691   31.8973  -71.6166 H         1 UNK         0.0685 
     76 H76       -79.8050   28.9732  -70.7832 H         1 UNK         0.1434 
     77 H77       -75.8129   28.4229  -72.2428 H         1 UNK         0.1329 
     78 H78       -78.2322   31.5766  -73.8083 H         1 UNK         0.1335 
     79 H79       -75.2113   29.5717  -74.3092 H         1 UNK         0.0680 
     80 H80       -76.1181   30.9459  -74.9109 H         1 UNK         0.0680 
     81 H81       -72.4369   32.3094  -73.8692 H         1 UNK         0.1032 
     82 H82       -73.6712   32.7273  -75.0137 H         1 UNK         0.1032 
     83 H83       -73.7234   30.4550  -75.9308 H         1 UNK         0.0461 
     84 H84       -71.2088   32.4285  -77.7185 H         1 UNK         0.3453 
     85 H85       -72.7635   32.7287  -76.9922 H         1 UNK         0.3453 
     86 H86       -73.1257   28.6649  -74.8146 H         1 UNK         0.2984 
     87 H87       -70.6132   27.8513  -72.4669 H         1 UNK         0.0554 
     88 H88       -72.5182   26.9671  -71.1549 H         1 UNK         0.0847 
     89 H89       -73.6333   28.0106  -72.0311 H         1 UNK         0.0847 
     90 H90       -72.4072   28.7131  -70.9891 H         1 UNK         0.0847 
     91 H91       -72.8837   26.6209  -73.9410 H         1 UNK         0.3141 
     92 H92       -70.5406   24.5275  -75.7423 H         1 UNK         0.0743 
     93 H93       -72.7030   24.0567  -73.6280 H         1 UNK         0.0784 
     94 H94       -72.0392   22.8534  -74.7314 H         1 UNK         0.0784 
     95 H95       -71.0192   23.5680  -73.4937 H         1 UNK         0.0784 
     96 H96       -73.3798   24.7089  -75.9403 H         1 UNK         0.3213 
     97 H97       -73.2754   26.5078  -79.0735 H         1 UNK         0.0855 
     98 H98       -72.7633   24.0877  -79.4496 H         1 UNK         0.0814 
     99 H99       -74.4642   24.4384  -79.7146 H         1 UNK         0.0814 
    100 H100      -73.9509   23.6381  -78.2320 H         1 UNK         0.0814 
    101 H101      -75.4597   25.4658  -77.5310 H         1 UNK         0.3105 
    102 H102      -76.2866   28.5822  -75.9557 H         1 UNK         0.0547 
    103 H103      -77.3918   28.6254  -78.1332 H         1 UNK         0.0837 
    104 H104      -77.6171   26.8864  -78.1129 H         1 UNK         0.0837 
    105 H105      -78.4730   27.9013  -76.9521 H         1 UNK         0.0837 
    106 H106      -77.5047   26.0843  -75.6182 H         1 UNK         0.3020 
    107 H107      -75.3580   24.6625  -73.1573 H         1 UNK         0.1245 
    108 H108      -77.8624   24.5040  -72.2773 H         1 UNK         0.0781 
    109 H109      -78.0460   26.0993  -72.9490 H         1 UNK         0.0781 
    110 H110      -77.3366   27.6900  -69.5259 H         1 UNK         0.0836 
    111 H111      -78.6423   26.8652  -70.3385 H         1 UNK         0.0836 
    112 H112      -77.7022   23.7730  -74.5663 H         1 UNK         0.3022 
    113 H113      -75.8620   21.9726  -77.0682 H         1 UNK         0.0747 
    114 H114      -77.2165   20.1204  -76.1298 H         1 UNK         0.0793 
    115 H115      -75.9112   20.5246  -75.0284 H         1 UNK         0.0793 
    116 H116      -77.5488   21.0561  -74.6720 H         1 UNK         0.0793 
    117 H117      -78.6605   22.2299  -76.5741 H         1 UNK         0.3047 
    118 H118      -79.2426   25.2193  -78.3802 H         1 UNK         0.0822 
    119 H119      -80.7284   23.7797  -79.7414 H         1 UNK         0.0807 
    120 H120      -79.8775   22.3325  -79.1986 H         1 UNK         0.0807 
    121 H121      -79.0558   23.5182  -80.2035 H         1 UNK         0.0807 
    122 H122      -81.0723   23.3975  -77.2607 H         1 UNK         0.2946 
    123 H123      -82.2555   24.0628  -75.4060 H         1 UNK         0.1144 
    124 H124      -80.8070   22.1113  -74.7953 H         1 UNK         0.0793 
    125 H125      -81.7117   22.6623  -73.3979 H         1 UNK         0.0793 
    126 H126      -80.0041   23.0671  -73.5561 H         1 UNK         0.0793 
    127 H127      -81.0068   25.2363  -73.0271 H         1 UNK         0.2896 
@<TRIPOS>BOND
     1    1    2 1    
     2    1   67 1    
     3    1   68 1    
     4    1   69 1    
     5    2    3 2    
     6    2    4 am   BACKBONE|DICT|INTERRES
     7    4    5 1    
     8    4   70 1    
     9    5    6 1    
    10    5   65 1    
    11    5   71 1    
    12    6    7 1    
    13    6   72 1    
    14    6   73 1    
    15    7    8 1    
    16    8    9 1    
    17    8   74 1    
    18    8   75 1    
    19    9   10 ar   
    20    9   14 ar   
    21   10   11 ar   
    22   10   76 1    
    23   11   12 ar   
    24   11   48 1    
    25   12   13 ar   
    26   12   77 1    
    27   13   14 ar   
    28   13   15 1    
    29   14   78 1    
    30   15   16 1    
    31   15   79 1    
    32   15   80 1    
    33   16   17 1    
    34   17   18 1    
    35   17   81 1    
    36   17   82 1    
    37   18   19 1    
    38   18   22 1    
    39   18   83 1    
    40   19   20 am   BACKBONE|DICT|INTERRES
    41   19   21 2    
    42   20   84 1    
    43   20   85 1    
    44   22   23 am   BACKBONE|DICT|INTERRES
    45   22   86 1    
    46   23   24 2    
    47   23   25 1    
    48   25   26 1    
    49   25   27 1    
    50   25   87 1    
    51   26   88 1    
    52   26   89 1    
    53   26   90 1    
    54   27   28 am   BACKBONE|DICT|INTERRES
    55   27   91 1    
    56   28   29 2    
    57   28   30 1    
    58   30   31 1    
    59   30   32 1    
    60   30   92 1    
    61   31   93 1    
    62   31   94 1    
    63   31   95 1    
    64   32   33 am   BACKBONE|DICT|INTERRES
    65   32   96 1    
    66   33   34 2    
    67   33   35 1    
    68   35   36 1    
    69   35   37 1    
    70   35   97 1    
    71   36   98 1    
    72   36   99 1    
    73   36  100 1    
    74   37   38 am   BACKBONE|DICT|INTERRES
    75   37  101 1    
    76   38   39 2    
    77   38   40 1    
    78   40   41 1    
    79   40   42 1    
    80   40  102 1    
    81   41  103 1    
    82   41  104 1    
    83   41  105 1    
    84   42   43 am   BACKBONE|DICT|INTERRES
    85   42  106 1    
    86   43   44 2    
    87   43   45 1    
    88   45   46 1    
    89   45   49 1    
    90   45  107 1    
    91   46   47 1    
    92   46  108 1    
    93   46  109 1    
    94   47   48 1    
    95   48  110 1    
    96   48  111 1    
    97   49   50 am   BACKBONE|DICT|INTERRES
    98   49  112 1    
    99   50   51 2    
   100   50   52 1    
   101   52   53 1    
   102   52   54 1    
   103   52  113 1    
   104   53  114 1    
   105   53  115 1    
   106   53  116 1    
   107   54   55 am   BACKBONE|DICT|INTERRES
   108   54  117 1    
   109   55   56 2    
   110   55   57 1    
   111   57   58 1    
   112   57   59 1    
   113   57  118 1    
   114   58  119 1    
   115   58  120 1    
   116   58  121 1    
   117   59   60 am   BACKBONE|DICT|INTERRES
   118   59  122 1    
   119   60   61 2    
   120   60   62 1    
   121   62   63 1    
   122   62   64 1    
   123   62  123 1    
   124   63  124 1    
   125   63  125 1    
   126   63  126 1    
   127   64   65 am   BACKBONE|DICT|INTERRES
   128   64  127 1    
   129   65   66 2    
@<TRIPOS>SUBSTRUCTURE
     1 UNK         1 GROUP             0       ****    0 ROOT    
