@<TRIPOS>MOLECULE
3R135
127   129    1
SMALL
USER_CHARGES


@<TRIPOS>ATOM
      1 CA        -81.4082   24.3555  -71.7550 C.3       0 UNK        -0.1998 
      2 C         -81.9892   25.4358  -72.6531 C.2       0 UNK         0.4909 
      3 O         -82.9558   25.1815  -73.3740 O.2       0 UNK        -0.5240 
      4 N         -81.4081   26.6419  -72.6237 N.am      1 UNK        -0.4739 
      5 CA        -81.8199   27.8009  -73.4283 C.3       1 UNK         0.0864 
      6 C6        -81.4767   29.1479  -72.7409 C.3       11 UNK        -0.0881 
      7 S7        -82.1892   29.2559  -71.0593 S.3       11 UNK        -0.2682 
      8 C8        -80.9942   30.3139  -70.1707 C.3       11 UNK         0.0289 
      9 C9        -79.5414   29.8654  -70.3034 C.ar      11 UNK        -0.0687 
     10 C10       -79.1771   28.5242  -70.1313 C.ar      11 UNK        -0.0823 
     11 C11       -77.8498   28.1246  -70.3101 C.ar      11 UNK        -0.0830 
     12 C12       -76.8753   29.0834  -70.5901 C.ar      11 UNK        -0.1021 
     13 C13       -77.2230   30.4228  -70.7799 C.ar      11 UNK        -0.0753 
     14 C14       -78.5590   30.8063  -70.6313 C.ar      11 UNK        -0.0933 
     15 C15       -76.1656   31.4516  -71.1641 C.3       11 UNK         0.0166 
     16 S16       -75.4063   31.0830  -72.7837 S.3       11 UNK        -0.2615 
     17 C17       -74.0663   29.9350  -72.3116 C.3       11 UNK        -0.0865 
     18 CA        -72.7507   30.2287  -73.0700 C.3       10 UNK         0.0862 
     19 C         -71.5462   29.5484  -72.3657 C.2       10 UNK         0.5551 
     20 N         -70.6461   30.3237  -71.7773 N.am      10 UNK        -0.7319 
     21 O         -71.4541   28.3247  -72.3072 O.2       10 UNK        -0.5018 
     22 N         -72.8442   29.7951  -74.4682 N.am      10 UNK        -0.4509 
     23 C         -72.0004   30.1774  -75.4336 C.2       10 UNK         0.4899 
     24 O         -71.1571   31.0663  -75.2993 O.2       10 UNK        -0.4839 
     25 CA        -72.1119   29.4034  -76.7589 C.3       9 UNK         0.0222 
     26 CB        -71.0736   29.8401  -77.8137 C.3       9 UNK        -0.1966 
     27 N         -72.0610   27.9536  -76.5396 N.am      9 UNK        -0.4218 
     28 C         -71.0742   27.2380  -75.9746 C.2       9 UNK         0.5020 
     29 O         -69.9929   27.7097  -75.6203 O.2       9 UNK        -0.5274 
     30 CA        -71.3323   25.7348  -75.7523 C.3       8 UNK         0.0270 
     31 CB        -71.6367   25.4644  -74.2700 C.3       8 UNK        -0.1976 
     32 N         -72.4261   25.2025  -76.5693 N.am      8 UNK        -0.4313 
     33 C         -72.3567   25.0027  -77.8930 C.2       8 UNK         0.5041 
     34 O         -71.3294   25.1517  -78.5557 O.2       8 UNK        -0.5577 
     35 CA        -73.6626   24.6116  -78.6048 C.3       7 UNK         0.0284 
     36 CB        -73.8999   23.0968  -78.5083 C.3       7 UNK        -0.1958 
     37 N         -74.8331   25.3338  -78.0939 N.am      7 UNK        -0.4454 
     38 C         -75.0052   26.6619  -78.1702 C.2       7 UNK         0.5089 
     39 O         -74.1994   27.4274  -78.6969 O.2       7 UNK        -0.5125 
     40 CA        -76.2668   27.2460  -77.5184 C.3       6 UNK         0.0408 
     41 CB        -77.4776   27.1187  -78.4548 C.3       6 UNK        -0.1791 
     42 N         -76.5630   26.6206  -76.2304 N.am      6 UNK        -0.4762 
     43 C         -75.8771   26.8397  -75.0984 C.2       6 UNK         0.5007 
     44 O         -74.9330   27.6280  -75.0041 O.2       6 UNK        -0.5032 
     45 CA        -76.3021   25.9961  -73.8787 C.3       5 UNK         0.0783 
     46 C46       -77.4989   26.6591  -73.1535 C.3       11 UNK        -0.0857 
     47 S47       -78.0876   25.7192  -71.6963 S.3       11 UNK        -0.2512 
     48 C48       -77.4611   26.6544  -70.2580 C.3       11 UNK         0.0225 
     49 N         -76.5807   24.6071  -74.2630 N.am      5 UNK        -0.4615 
     50 C         -75.6585   23.7492  -74.7205 C.2       4 UNK         0.5053 
     51 O         -74.4746   24.0415  -74.8832 O.2       4 UNK        -0.5105 
     52 CA        -76.1350   22.3359  -75.0944 C.3       4 UNK         0.0263 
     53 CB        -76.1355   21.4283  -73.8544 C.3       4 UNK        -0.1981 
     54 N         -77.4557   22.2968  -75.7271 N.am      4 UNK        -0.4224 
     55 C         -77.8050   22.9434  -76.8483 C.2       3 UNK         0.4895 
     56 O         -77.0450   23.6782  -77.4801 O.2       3 UNK        -0.5091 
     57 CA        -79.2509   22.7652  -77.3503 C.3       3 UNK         0.0250 
     58 CB        -80.0901   21.7595  -76.5273 C.3       3 UNK        -0.1996 
     59 N         -79.9623   24.0453  -77.4533 N.am      3 UNK        -0.4254 
     60 C         -80.1398   24.9466  -76.4756 C.2       2 UNK         0.5004 
     61 O         -79.6347   24.8431  -75.3539 O.2       2 UNK        -0.5226 
     62 CA        -81.0362   26.1584  -76.8019 C.3       2 UNK         0.0269 
     63 CB        -82.1617   25.8298  -77.8036 C.3       2 UNK        -0.1926 
     64 N         -81.6429   26.6416  -75.5648 N.am      2 UNK        -0.4687 
     65 C         -81.2171   27.6836  -74.8442 C.2       1 UNK         0.5165 
     66 O         -80.3659   28.4852  -75.2344 O.2       1 UNK        -0.5079 
     67 H67       -82.2003   23.7141  -71.3697 H         1 UNK         0.0900 
     68 H68       -80.8804   24.7841  -70.9035 H         1 UNK         0.0900 
     69 H69       -80.7097   23.7380  -72.3195 H         1 UNK         0.0900 
     70 H70       -80.5857   26.7805  -72.0538 H         1 UNK         0.2959 
     71 H71       -82.9058   27.7735  -73.5468 H         1 UNK         0.1079 
     72 H72       -81.8624   29.9838  -73.3273 H         1 UNK         0.0837 
     73 H73       -80.3951   29.2811  -72.7016 H         1 UNK         0.0837 
     74 H74       -81.1143   31.3356  -70.5344 H         1 UNK         0.0685 
     75 H75       -81.2603   30.3311  -69.1132 H         1 UNK         0.0685 
     76 H76       -79.9326   27.7858  -69.9007 H         1 UNK         0.1434 
     77 H77       -75.8492   28.7713  -70.7042 H         1 UNK         0.1329 
     78 H78       -78.8369   31.8409  -70.7801 H         1 UNK         0.1335 
     79 H79       -75.4053   31.5123  -70.3847 H         1 UNK         0.0680 
     80 H80       -76.6119   32.4455  -71.2231 H         1 UNK         0.0680 
     81 H81       -73.9006   30.0139  -71.2356 H         1 UNK         0.1032 
     82 H82       -74.3912   28.9091  -72.4950 H         1 UNK         0.1032 
     83 H83       -72.5875   31.3088  -73.0591 H         1 UNK         0.0461 
     84 H84       -69.8676   29.8959  -71.3009 H         1 UNK         0.3453 
     85 H85       -70.7173   31.3285  -71.8196 H         1 UNK         0.3453 
     86 H86       -73.5026   29.0465  -74.6603 H         1 UNK         0.2984 
     87 H87       -73.1028   29.6186  -77.1615 H         1 UNK         0.0554 
     88 H88       -71.2006   29.2870  -78.7444 H         1 UNK         0.0847 
     89 H89       -70.0511   29.6852  -77.4680 H         1 UNK         0.0847 
     90 H90       -71.1796   30.8997  -78.0487 H         1 UNK         0.0847 
     91 H91       -72.8975   27.4542  -76.8117 H         1 UNK         0.3141 
     92 H92       -70.4167   25.2015  -76.0164 H         1 UNK         0.0743 
     93 H93       -71.7618   24.3990  -74.0765 H         1 UNK         0.0784 
     94 H94       -70.8246   25.8174  -73.6328 H         1 UNK         0.0784 
     95 H95       -72.5461   25.9741  -73.9477 H         1 UNK         0.0784 
     96 H96       -73.2876   24.9696  -76.0793 H         1 UNK         0.3213 
     97 H97       -73.5536   24.8717  -79.6599 H         1 UNK         0.0855 
     98 H98       -73.0667   22.5439  -78.9440 H         1 UNK         0.0814 
     99 H99       -74.8021   22.7997  -79.0434 H         1 UNK         0.0814 
    100 H100      -74.0001   22.7714  -77.4734 H         1 UNK         0.0814 
    101 H101      -75.5847   24.7690  -77.7014 H         1 UNK         0.3105 
    102 H102      -76.0877   28.3098  -77.3470 H         1 UNK         0.0547 
    103 H103      -77.2579   27.5430  -79.4355 H         1 UNK         0.0837 
    104 H104      -77.7696   26.0793  -78.6079 H         1 UNK         0.0837 
    105 H105      -78.3354   27.6603  -78.0584 H         1 UNK         0.0837 
    106 H106      -77.2850   25.9126  -76.2178 H         1 UNK         0.3020 
    107 H107      -75.4542   25.9823  -73.1900 H         1 UNK         0.1245 
    108 H108      -78.3465   26.7518  -73.8354 H         1 UNK         0.0781 
    109 H109      -77.2454   27.6799  -72.8697 H         1 UNK         0.0781 
    110 H110      -76.3773   26.5387  -70.2084 H         1 UNK         0.0836 
    111 H111      -77.8568   26.2076  -69.3449 H         1 UNK         0.0836 
    112 H112      -77.5456   24.3101  -74.1971 H         1 UNK         0.3022 
    113 H113      -75.4211   21.9271  -75.8110 H         1 UNK         0.0747 
    114 H114      -76.3726   20.3969  -74.1160 H         1 UNK         0.0793 
    115 H115      -75.1548   21.4214  -73.3763 H         1 UNK         0.0793 
    116 H116      -76.8587   21.7620  -73.1090 H         1 UNK         0.0793 
    117 H117      -78.1593   21.7373  -75.2679 H         1 UNK         0.3047 
    118 H118      -79.1675   22.3735  -78.3651 H         1 UNK         0.0822 
    119 H119      -80.2345   22.0871  -75.4968 H         1 UNK         0.0807 
    120 H120      -79.6241   20.7733  -76.5068 H         1 UNK         0.0807 
    121 H121      -81.0791   21.6293  -76.9671 H         1 UNK         0.0807 
    122 H122      -80.3830   24.2340  -78.3521 H         1 UNK         0.2946 
    123 H123      -80.4008   26.9318  -77.2359 H         1 UNK         0.1144 
    124 H124      -81.7653   25.5984  -78.7927 H         1 UNK         0.0793 
    125 H125      -82.7607   24.9789  -77.4755 H         1 UNK         0.0793 
    126 H126      -82.8351   26.6782  -77.9282 H         1 UNK         0.0793 
    127 H127      -82.2681   25.9943  -75.0941 H         1 UNK         0.2896 
@<TRIPOS>BOND
     1    1    2 1    
     2    1   67 1    
     3    1   68 1    
     4    1   69 1    
     5    2    3 2    
     6    2    4 am   BACKBONE|DICT|INTERRES
     7    4    5 1    
     8    4   70 1    
     9    5    6 1    
    10    5   65 1    
    11    5   71 1    
    12    6    7 1    
    13    6   72 1    
    14    6   73 1    
    15    7    8 1    
    16    8    9 1    
    17    8   74 1    
    18    8   75 1    
    19    9   10 ar   
    20    9   14 ar   
    21   10   11 ar   
    22   10   76 1    
    23   11   12 ar   
    24   11   48 1    
    25   12   13 ar   
    26   12   77 1    
    27   13   14 ar   
    28   13   15 1    
    29   14   78 1    
    30   15   16 1    
    31   15   79 1    
    32   15   80 1    
    33   16   17 1    
    34   17   18 1    
    35   17   81 1    
    36   17   82 1    
    37   18   19 1    
    38   18   22 1    
    39   18   83 1    
    40   19   20 am   BACKBONE|DICT|INTERRES
    41   19   21 2    
    42   20   84 1    
    43   20   85 1    
    44   22   23 am   BACKBONE|DICT|INTERRES
    45   22   86 1    
    46   23   24 2    
    47   23   25 1    
    48   25   26 1    
    49   25   27 1    
    50   25   87 1    
    51   26   88 1    
    52   26   89 1    
    53   26   90 1    
    54   27   28 am   BACKBONE|DICT|INTERRES
    55   27   91 1    
    56   28   29 2    
    57   28   30 1    
    58   30   31 1    
    59   30   32 1    
    60   30   92 1    
    61   31   93 1    
    62   31   94 1    
    63   31   95 1    
    64   32   33 am   BACKBONE|DICT|INTERRES
    65   32   96 1    
    66   33   34 2    
    67   33   35 1    
    68   35   36 1    
    69   35   37 1    
    70   35   97 1    
    71   36   98 1    
    72   36   99 1    
    73   36  100 1    
    74   37   38 am   BACKBONE|DICT|INTERRES
    75   37  101 1    
    76   38   39 2    
    77   38   40 1    
    78   40   41 1    
    79   40   42 1    
    80   40  102 1    
    81   41  103 1    
    82   41  104 1    
    83   41  105 1    
    84   42   43 am   BACKBONE|DICT|INTERRES
    85   42  106 1    
    86   43   44 2    
    87   43   45 1    
    88   45   46 1    
    89   45   49 1    
    90   45  107 1    
    91   46   47 1    
    92   46  108 1    
    93   46  109 1    
    94   47   48 1    
    95   48  110 1    
    96   48  111 1    
    97   49   50 am   BACKBONE|DICT|INTERRES
    98   49  112 1    
    99   50   51 2    
   100   50   52 1    
   101   52   53 1    
   102   52   54 1    
   103   52  113 1    
   104   53  114 1    
   105   53  115 1    
   106   53  116 1    
   107   54   55 am   BACKBONE|DICT|INTERRES
   108   54  117 1    
   109   55   56 2    
   110   55   57 1    
   111   57   58 1    
   112   57   59 1    
   113   57  118 1    
   114   58  119 1    
   115   58  120 1    
   116   58  121 1    
   117   59   60 am   BACKBONE|DICT|INTERRES
   118   59  122 1    
   119   60   61 2    
   120   60   62 1    
   121   62   63 1    
   122   62   64 1    
   123   62  123 1    
   124   63  124 1    
   125   63  125 1    
   126   63  126 1    
   127   64   65 am   BACKBONE|DICT|INTERRES
   128   64  127 1    
   129   65   66 2    
@<TRIPOS>SUBSTRUCTURE
     1 UNK         1 GROUP             0       ****    0 ROOT    
