@<TRIPOS>MOLECULE
3R135
127   129    1
SMALL
USER_CHARGES


@<TRIPOS>ATOM
      1 CA        -75.7936   22.6978  -74.3954 C.3       0 UNK        -0.1998 
      2 C         -76.9087   22.8997  -73.3827 C.2       0 UNK         0.4909 
      3 O         -77.2481   21.9717  -72.6479 O.2       0 UNK        -0.5240 
      4 N         -77.4989   24.1003  -73.3504 N.am      1 UNK        -0.4739 
      5 CA        -78.5866   24.4783  -72.4434 C.3       1 UNK         0.0864 
      6 C6        -78.5886   25.9996  -72.1530 C.3       11 UNK        -0.0881 
      7 S7        -77.1334   26.4807  -71.1620 S.3       11 UNK        -0.2682 
      8 C8        -77.8194   27.7561  -70.0607 C.3       11 UNK         0.0289 
      9 C9        -77.8618   29.1117  -70.7480 C.ar      11 UNK        -0.0687 
     10 C10       -78.9400   29.4541  -71.5685 C.ar      11 UNK        -0.0823 
     11 C11       -78.9656   30.6880  -72.2241 C.ar      11 UNK        -0.0830 
     12 C12       -77.9268   31.5991  -72.0196 C.ar      11 UNK        -0.1021 
     13 C13       -76.8414   31.2681  -71.2046 C.ar      11 UNK        -0.0753 
     14 C14       -76.8134   30.0208  -70.5730 C.ar      11 UNK        -0.0933 
     15 C15       -75.6891   32.2481  -71.0197 C.3       11 UNK         0.0166 
     16 S16       -74.9800   32.8220  -72.6011 S.3       11 UNK        -0.2615 
     17 C17       -74.4989   31.2529  -73.4010 C.3       11 UNK        -0.0865 
     18 CA        -72.9858   30.9531  -73.2762 C.3       10 UNK         0.0862 
     19 C         -72.6140   30.4392  -71.8578 C.2       10 UNK         0.5551 
     20 N         -71.9349   31.2493  -71.0573 N.am      10 UNK        -0.7319 
     21 O         -72.9721   29.3303  -71.4685 O.2       10 UNK        -0.5018 
     22 N         -72.5683   30.0100  -74.3187 N.am      10 UNK        -0.4509 
     23 C         -71.2949   29.7478  -74.6439 C.2       10 UNK         0.4899 
     24 O         -70.3298   30.3537  -74.1749 O.2       10 UNK        -0.4839 
     25 CA        -71.0727   28.6252  -75.6761 C.3       9 UNK         0.0222 
     26 CB        -69.6091   28.1390  -75.7463 C.3       9 UNK        -0.1966 
     27 N         -72.0001   27.5044  -75.4853 N.am      9 UNK        -0.4218 
     28 C         -72.1047   26.7034  -74.4111 C.2       9 UNK         0.5020 
     29 O         -71.3265   26.7304  -73.4569 O.2       9 UNK        -0.5274 
     30 CA        -73.2894   25.7181  -74.3682 C.3       8 UNK         0.0270 
     31 CB        -74.2670   26.1171  -73.2518 C.3       8 UNK        -0.1976 
     32 N         -74.0225   25.6388  -75.6340 N.am      8 UNK        -0.4313 
     33 C         -73.6193   24.9362  -76.7017 C.2       8 UNK         0.5041 
     34 O         -72.6459   24.1827  -76.6978 O.2       8 UNK        -0.5577 
     35 CA        -74.4087   25.1400  -78.0069 C.3       7 UNK         0.0284 
     36 CB        -75.4734   24.0448  -78.1843 C.3       7 UNK        -0.1958 
     37 N         -75.0295   26.4673  -78.1038 N.am      7 UNK        -0.4454 
     38 C         -74.3460   27.6152  -78.2291 C.2       7 UNK         0.5089 
     39 O         -73.1187   27.6735  -78.2822 O.2       7 UNK        -0.5125 
     40 CA        -75.1570   28.9211  -78.2521 C.3       6 UNK         0.0408 
     41 CB        -75.5388   29.2892  -79.6940 C.3       6 UNK        -0.1791 
     42 N         -76.3651   28.8620  -77.4269 N.am      6 UNK        -0.4762 
     43 C         -76.3797   28.7980  -76.0862 C.2       6 UNK         0.5007 
     44 O         -75.3614   28.7932  -75.3924 O.2       6 UNK        -0.5032 
     45 CA        -77.7722   28.6595  -75.4345 C.3       5 UNK         0.0783 
     46 C46       -78.4720   30.0403  -75.3279 C.3       11 UNK        -0.0857 
     47 S47       -80.1537   29.9092  -74.6146 S.3       11 UNK        -0.2512 
     48 C48       -80.0978   31.0312  -73.1791 C.3       11 UNK         0.0225 
     49 N         -78.5995   27.6979  -76.1745 N.am      5 UNK        -0.4615 
     50 C         -78.3590   26.3893  -76.2963 C.2       4 UNK         0.5053 
     51 O         -77.4283   25.7989  -75.7382 O.2       4 UNK        -0.5105 
     52 CA        -79.2791   25.6373  -77.2640 C.3       4 UNK         0.0263 
     53 CB        -78.8634   25.9353  -78.7220 C.3       4 UNK        -0.1981 
     54 N         -79.2049   24.2101  -76.9661 N.am      4 UNK        -0.4224 
     55 C         -79.9098   23.2293  -77.5451 C.2       3 UNK         0.4895 
     56 O         -80.7171   23.3963  -78.4596 O.2       3 UNK        -0.5091 
     57 CA        -79.6973   21.8183  -76.9745 C.3       3 UNK         0.0250 
     58 CB        -78.2648   21.3176  -77.2304 C.3       3 UNK        -0.1996 
     59 N         -79.9938   21.7807  -75.5417 N.am      3 UNK        -0.4254 
     60 C         -81.2265   21.8704  -75.0185 C.2       2 UNK         0.5004 
     61 O         -82.2606   21.8766  -75.6867 O.2       2 UNK        -0.5226 
     62 CA        -81.3220   21.9859  -73.4876 C.3       2 UNK         0.0269 
     63 CB        -81.4613   20.5958  -72.8464 C.3       2 UNK        -0.1926 
     64 N         -80.1710   22.6783  -72.9017 N.am      2 UNK        -0.4687 
     65 C         -79.9182   23.9874  -73.0375 C.2       1 UNK         0.5165 
     66 O         -80.6559   24.7690  -73.6400 O.2       1 UNK        -0.5079 
     67 H67       -74.8241   22.7534  -73.9014 H         1 UNK         0.0900 
     68 H68       -75.8234   23.4560  -75.1753 H         1 UNK         0.0900 
     69 H69       -75.8789   21.7199  -74.8680 H         1 UNK         0.0900 
     70 H70       -77.2318   24.8121  -74.0238 H         1 UNK         0.2959 
     71 H71       -78.4535   23.9642  -71.4882 H         1 UNK         0.1079 
     72 H72       -78.6013   26.5771  -73.0782 H         1 UNK         0.0837 
     73 H73       -79.4930   26.2748  -71.6078 H         1 UNK         0.0837 
     74 H74       -78.8133   27.4691  -69.7145 H         1 UNK         0.0685 
     75 H75       -77.1956   27.8134  -69.1675 H         1 UNK         0.0685 
     76 H76       -79.7462   28.7504  -71.7228 H         1 UNK         0.1434 
     77 H77       -77.9431   32.5577  -72.5203 H         1 UNK         0.1329 
     78 H78       -75.9706   29.7516  -69.9507 H         1 UNK         0.1335 
     79 H79       -76.0498   33.1135  -70.4624 H         1 UNK         0.0680 
     80 H80       -74.8950   31.8048  -70.4173 H         1 UNK         0.0680 
     81 H81       -74.7663   31.3584  -74.4536 H         1 UNK         0.1032 
     82 H82       -75.0980   30.4162  -73.0370 H         1 UNK         0.1032 
     83 H83       -72.4438   31.8826  -73.4646 H         1 UNK         0.0461 
     84 H84       -71.6954   30.9360  -70.1300 H         1 UNK         0.3453 
     85 H85       -71.6476   32.1642  -71.3680 H         1 UNK         0.3453 
     86 H86       -73.3052   29.4472  -74.7256 H         1 UNK         0.2984 
     87 H87       -71.3184   29.0575  -76.6469 H         1 UNK         0.0554 
     88 H88       -69.4891   27.3487  -76.4872 H         1 UNK         0.0847 
     89 H89       -69.2601   27.7564  -74.7869 H         1 UNK         0.0847 
     90 H90       -68.9414   28.9530  -76.0312 H         1 UNK         0.0847 
     91 H91       -72.6599   27.3719  -76.2426 H         1 UNK         0.3141 
     92 H92       -72.8853   24.7318  -74.1307 H         1 UNK         0.0743 
     93 H93       -74.7177   27.0937  -73.4314 H         1 UNK         0.0784 
     94 H94       -75.0699   25.3906  -73.1501 H         1 UNK         0.0784 
     95 H95       -73.7621   26.1708  -72.2863 H         1 UNK         0.0784 
     96 H96       -74.8467   26.2196  -75.7191 H         1 UNK         0.3213 
     97 H97       -73.6937   25.0469  -78.8277 H         1 UNK         0.0855 
     98 H98       -76.2719   24.1287  -77.4492 H         1 UNK         0.0814 
     99 H99       -75.0347   23.0518  -78.0755 H         1 UNK         0.0814 
    100 H100      -75.9227   24.0871  -79.1763 H         1 UNK         0.0814 
    101 H101      -76.0344   26.5127  -78.0349 H         1 UNK         0.3105 
    102 H102      -74.5179   29.7136  -77.8564 H         1 UNK         0.0547 
    103 H103      -74.6518   29.3627  -80.3250 H         1 UNK         0.0837 
    104 H104      -76.1967   28.5444  -80.1437 H         1 UNK         0.0837 
    105 H105      -76.0438   30.2543  -79.7372 H         1 UNK         0.0837 
    106 H106      -77.2491   28.8650  -77.9147 H         1 UNK         0.3020 
    107 H107      -77.6165   28.2721  -74.4251 H         1 UNK         0.1245 
    108 H108      -77.8660   30.7281  -74.7364 H         1 UNK         0.0781 
    109 H109      -78.5690   30.5020  -76.3124 H         1 UNK         0.0781 
    110 H110      -81.0475   30.9736  -72.6455 H         1 UNK         0.0836 
    111 H111      -80.0096   32.0578  -73.5383 H         1 UNK         0.0836 
    112 H112      -79.4077   28.0882  -76.6376 H         1 UNK         0.3022 
    113 H113      -80.3055   25.9691  -77.0955 H         1 UNK         0.0747 
    114 H114      -79.5744   25.5217  -79.4364 H         1 UNK         0.0793 
    115 H115      -78.8221   27.0077  -78.9158 H         1 UNK         0.0793 
    116 H116      -77.8838   25.5221  -78.9574 H         1 UNK         0.0793 
    117 H117      -78.5736   23.9910  -76.2078 H         1 UNK         0.3047 
    118 H118      -80.3865   21.1422  -77.4858 H         1 UNK         0.0822 
    119 H119      -78.1382   20.2905  -76.8872 H         1 UNK         0.0807 
    120 H120      -77.5170   21.9314  -76.7297 H         1 UNK         0.0807 
    121 H121      -78.0340   21.3315  -78.2965 H         1 UNK         0.0807 
    122 H122      -79.2111   21.7570  -74.9054 H         1 UNK         0.2946 
    123 H123      -82.2212   22.5633  -73.2594 H         1 UNK         0.1144 
    124 H124      -82.3232   20.0640  -73.2521 H         1 UNK         0.0793 
    125 H125      -81.6061   20.6691  -71.7684 H         1 UNK         0.0793 
    126 H126      -80.5815   19.9766  -73.0263 H         1 UNK         0.0793 
    127 H127      -79.4716   22.1056  -72.4434 H         1 UNK         0.2896 
@<TRIPOS>BOND
     1    1    2 1    
     2    1   67 1    
     3    1   68 1    
     4    1   69 1    
     5    2    3 2    
     6    2    4 am   BACKBONE|DICT|INTERRES
     7    4    5 1    
     8    4   70 1    
     9    5    6 1    
    10    5   65 1    
    11    5   71 1    
    12    6    7 1    
    13    6   72 1    
    14    6   73 1    
    15    7    8 1    
    16    8    9 1    
    17    8   74 1    
    18    8   75 1    
    19    9   10 ar   
    20    9   14 ar   
    21   10   11 ar   
    22   10   76 1    
    23   11   12 ar   
    24   11   48 1    
    25   12   13 ar   
    26   12   77 1    
    27   13   14 ar   
    28   13   15 1    
    29   14   78 1    
    30   15   16 1    
    31   15   79 1    
    32   15   80 1    
    33   16   17 1    
    34   17   18 1    
    35   17   81 1    
    36   17   82 1    
    37   18   19 1    
    38   18   22 1    
    39   18   83 1    
    40   19   20 am   BACKBONE|DICT|INTERRES
    41   19   21 2    
    42   20   84 1    
    43   20   85 1    
    44   22   23 am   BACKBONE|DICT|INTERRES
    45   22   86 1    
    46   23   24 2    
    47   23   25 1    
    48   25   26 1    
    49   25   27 1    
    50   25   87 1    
    51   26   88 1    
    52   26   89 1    
    53   26   90 1    
    54   27   28 am   BACKBONE|DICT|INTERRES
    55   27   91 1    
    56   28   29 2    
    57   28   30 1    
    58   30   31 1    
    59   30   32 1    
    60   30   92 1    
    61   31   93 1    
    62   31   94 1    
    63   31   95 1    
    64   32   33 am   BACKBONE|DICT|INTERRES
    65   32   96 1    
    66   33   34 2    
    67   33   35 1    
    68   35   36 1    
    69   35   37 1    
    70   35   97 1    
    71   36   98 1    
    72   36   99 1    
    73   36  100 1    
    74   37   38 am   BACKBONE|DICT|INTERRES
    75   37  101 1    
    76   38   39 2    
    77   38   40 1    
    78   40   41 1    
    79   40   42 1    
    80   40  102 1    
    81   41  103 1    
    82   41  104 1    
    83   41  105 1    
    84   42   43 am   BACKBONE|DICT|INTERRES
    85   42  106 1    
    86   43   44 2    
    87   43   45 1    
    88   45   46 1    
    89   45   49 1    
    90   45  107 1    
    91   46   47 1    
    92   46  108 1    
    93   46  109 1    
    94   47   48 1    
    95   48  110 1    
    96   48  111 1    
    97   49   50 am   BACKBONE|DICT|INTERRES
    98   49  112 1    
    99   50   51 2    
   100   50   52 1    
   101   52   53 1    
   102   52   54 1    
   103   52  113 1    
   104   53  114 1    
   105   53  115 1    
   106   53  116 1    
   107   54   55 am   BACKBONE|DICT|INTERRES
   108   54  117 1    
   109   55   56 2    
   110   55   57 1    
   111   57   58 1    
   112   57   59 1    
   113   57  118 1    
   114   58  119 1    
   115   58  120 1    
   116   58  121 1    
   117   59   60 am   BACKBONE|DICT|INTERRES
   118   59  122 1    
   119   60   61 2    
   120   60   62 1    
   121   62   63 1    
   122   62   64 1    
   123   62  123 1    
   124   63  124 1    
   125   63  125 1    
   126   63  126 1    
   127   64   65 am   BACKBONE|DICT|INTERRES
   128   64  127 1    
   129   65   66 2    
@<TRIPOS>SUBSTRUCTURE
     1 UNK         1 GROUP             0       ****    0 ROOT    
