@<TRIPOS>MOLECULE
3R135
127   129    1
SMALL
USER_CHARGES


@<TRIPOS>ATOM
      1 CA        -82.3729   30.8795  -74.3333 C.3       0 UNK        -0.1998 
      2 C         -83.2051   29.8385  -73.5869 C.2       0 UNK         0.4909 
      3 O         -84.4226   29.9902  -73.5063 O.2       0 UNK        -0.5240 
      4 N         -82.6136   28.7800  -73.0138 N.am      1 UNK        -0.4739 
      5 CA        -81.2004   28.3993  -73.0935 C.3       1 UNK         0.0864 
      6 C6        -80.8554   27.3562  -72.0044 C.3       11 UNK        -0.0881 
      7 S7        -79.0733   26.9859  -71.9307 S.3       11 UNK        -0.2682 
      8 C8        -78.5507   27.8608  -70.4196 C.3       11 UNK         0.0289 
      9 C9        -77.0377   27.7902  -70.2878 C.ar      11 UNK        -0.0687 
     10 C10       -76.4180   26.5467  -70.1526 C.ar      11 UNK        -0.0823 
     11 C11       -75.0287   26.4316  -70.2280 C.ar      11 UNK        -0.0830 
     12 C12       -74.2493   27.5857  -70.3416 C.ar      11 UNK        -0.1021 
     13 C13       -74.8565   28.8439  -70.4205 C.ar      11 UNK        -0.0753 
     14 C14       -76.2521   28.9416  -70.3904 C.ar      11 UNK        -0.0933 
     15 C15       -74.0015   30.0902  -70.5856 C.3       11 UNK         0.0166 
     16 S16       -73.5471   30.3611  -72.3283 S.3       11 UNK        -0.2615 
     17 C17       -75.0974   31.0155  -73.0381 C.3       11 UNK        -0.0865 
     18 CA        -75.9354   29.9554  -73.8066 C.3       10 UNK         0.0862 
     19 C         -77.2953   30.5636  -74.2480 C.2       10 UNK         0.5551 
     20 N         -77.3808   31.2182  -75.3965 N.am      10 UNK        -0.7319 
     21 O         -78.2950   30.4159  -73.5507 O.2       10 UNK        -0.5018 
     22 N         -75.1887   29.2565  -74.8691 N.am      10 UNK        -0.4509 
     23 C         -74.6329   29.7700  -75.9748 C.2       10 UNK         0.4899 
     24 O         -74.6882   30.9594  -76.2933 O.2       10 UNK        -0.4839 
     25 CA        -73.9032   28.7577  -76.8750 C.3       9 UNK         0.0222 
     26 CB        -73.1564   29.4044  -78.0606 C.3       9 UNK        -0.1966 
     27 N         -73.0268   27.8814  -76.0924 N.am      9 UNK        -0.4218 
     28 C         -71.9206   28.2131  -75.4072 C.2       9 UNK         0.5020 
     29 O         -71.4046   29.3311  -75.4129 O.2       9 UNK        -0.5274 
     30 CA        -71.2750   27.0979  -74.5677 C.3       8 UNK         0.0270 
     31 CB        -71.8424   27.1097  -73.1396 C.3       8 UNK        -0.1976 
     32 N         -71.4933   25.7785  -75.1657 N.am      8 UNK        -0.4313 
     33 C         -70.6769   25.2145  -76.0669 C.2       8 UNK         0.5041 
     34 O         -69.6002   25.6998  -76.4170 O.2       8 UNK        -0.5577 
     35 CA        -71.1400   23.8877  -76.6966 C.3       7 UNK         0.0284 
     36 CB        -70.7027   22.6967  -75.8283 C.3       7 UNK        -0.1958 
     37 N         -72.5880   23.8289  -76.9106 N.am      7 UNK        -0.4454 
     38 C         -73.2659   24.5936  -77.7790 C.2       7 UNK         0.5089 
     39 O         -72.7327   25.3785  -78.5627 O.2       7 UNK        -0.5125 
     40 CA        -74.8029   24.4841  -77.7575 C.3       6 UNK         0.0408 
     41 CB        -75.2760   23.5301  -78.8659 C.3       6 UNK        -0.1791 
     42 N         -75.3746   24.0546  -76.4738 N.am      6 UNK        -0.4762 
     43 C         -75.2080   24.6738  -75.2939 C.2       6 UNK         0.5007 
     44 O         -74.5005   25.6728  -75.1478 O.2       6 UNK        -0.5032 
     45 CA        -75.9765   24.0735  -74.1043 C.3       5 UNK         0.0783 
     46 C46       -75.7581   24.8052  -72.7600 C.3       11 UNK        -0.0857 
     47 S47       -74.1295   24.4821  -71.9939 S.3       11 UNK        -0.2512 
     48 C48       -74.3918   25.0498  -70.2754 C.3       11 UNK         0.0225 
     49 N         -77.3895   24.0357  -74.4700 N.am      5 UNK        -0.4615 
     50 C         -78.2429   23.0557  -74.1496 C.2       4 UNK         0.5053 
     51 O         -77.9386   22.0940  -73.4438 O.2       4 UNK        -0.5105 
     52 CA        -79.6734   23.1373  -74.7224 C.3       4 UNK         0.0263 
     53 CB        -80.6507   23.6453  -73.6527 C.3       4 UNK        -0.1981 
     54 N         -79.7870   23.9856  -75.9121 N.am      4 UNK        -0.4224 
     55 C         -79.1819   23.7466  -77.0847 C.2       3 UNK         0.4895 
     56 O         -78.5441   22.7211  -77.3254 O.2       3 UNK        -0.5091 
     57 CA        -79.2593   24.8429  -78.1632 C.3       3 UNK         0.0250 
     58 CB        -80.2612   24.4458  -79.2592 C.3       3 UNK        -0.1996 
     59 N         -79.5906   26.1875  -77.6766 N.am      3 UNK        -0.4254 
     60 C         -78.9086   26.8978  -76.7657 C.2       2 UNK         0.5004 
     61 O         -77.9411   26.4623  -76.1395 O.2       2 UNK        -0.5226 
     62 CA        -79.3773   28.3410  -76.5071 C.3       2 UNK         0.0269 
     63 CB        -80.4219   28.8678  -77.5185 C.3       2 UNK        -0.1926 
     64 N         -79.8527   28.5372  -75.1338 N.am      2 UNK        -0.4687 
     65 C         -80.8631   27.9069  -74.5195 C.2       1 UNK         0.5165 
     66 O         -81.5286   27.0006  -75.0273 O.2       1 UNK        -0.5079 
     67 H67       -81.4782   31.1613  -73.7798 H         1 UNK         0.0900 
     68 H68       -82.9554   31.7877  -74.4870 H         1 UNK         0.0900 
     69 H69       -82.0807   30.5065  -75.3140 H         1 UNK         0.0900 
     70 H70       -83.2063   28.1073  -72.5490 H         1 UNK         0.2959 
     71 H71       -80.6039   29.2865  -72.8761 H         1 UNK         0.1079 
     72 H72       -81.1794   27.7165  -71.0266 H         1 UNK         0.0837 
     73 H73       -81.4018   26.4269  -72.1727 H         1 UNK         0.0837 
     74 H74       -78.8894   28.8972  -70.4657 H         1 UNK         0.0685 
     75 H75       -79.0207   27.4062  -69.5465 H         1 UNK         0.0685 
     76 H76       -77.0286   25.6567  -70.0853 H         1 UNK         0.1434 
     77 H77       -73.1732   27.5027  -70.4103 H         1 UNK         0.1329 
     78 H78       -76.7257   29.9078  -70.4966 H         1 UNK         0.1335 
     79 H79       -74.5130   30.9691  -70.1905 H         1 UNK         0.0680 
     80 H80       -73.0874   29.9831  -69.9996 H         1 UNK         0.0680 
     81 H81       -74.8342   31.8394  -73.7036 H         1 UNK         0.1032 
     82 H82       -75.6896   31.4640  -72.2385 H         1 UNK         0.1032 
     83 H83       -76.1859   29.1635  -73.1014 H         1 UNK         0.0461 
     84 H84       -78.2522   31.6318  -75.6852 H         1 UNK         0.3453 
     85 H85       -76.5398   31.3411  -75.9507 H         1 UNK         0.3453 
     86 H86       -75.0959   28.2602  -74.7278 H         1 UNK         0.2984 
     87 H87       -74.6758   28.1101  -77.2926 H         1 UNK         0.0554 
     88 H88       -72.6576   28.6514  -78.6710 H         1 UNK         0.0847 
     89 H89       -72.4050   30.1213  -77.7289 H         1 UNK         0.0847 
     90 H90       -73.8495   29.9414  -78.7092 H         1 UNK         0.0847 
     91 H91       -73.4006   26.9499  -75.9293 H         1 UNK         0.3141 
     92 H92       -70.2031   27.2976  -74.5057 H         1 UNK         0.0743 
     93 H93       -72.9294   27.0154  -73.1349 H         1 UNK         0.0784 
     94 H94       -71.4314   26.2993  -72.5377 H         1 UNK         0.0784 
     95 H95       -71.5972   28.0445  -72.6348 H         1 UNK         0.0784 
     96 H96       -72.3783   25.3315  -74.9587 H         1 UNK         0.3213 
     97 H97       -70.6535   23.7978  -77.6705 H         1 UNK         0.0855 
     98 H98       -71.1732   22.7170  -74.8443 H         1 UNK         0.0814 
     99 H99       -69.6229   22.7052  -75.6725 H         1 UNK         0.0814 
    100 H100      -70.9518   21.7468  -76.3017 H         1 UNK         0.0814 
    101 H101      -73.1150   23.1973  -76.3257 H         1 UNK         0.3105 
    102 H102      -75.2017   25.4785  -77.9688 H         1 UNK         0.0547 
    103 H103      -74.9032   23.8483  -79.8406 H         1 UNK         0.0837 
    104 H104      -74.9225   22.5118  -78.6993 H         1 UNK         0.0837 
    105 H105      -76.3625   23.4982  -78.9337 H         1 UNK         0.0837 
    106 H106      -75.9995   23.2600  -76.5089 H         1 UNK         0.3020 
    107 H107      -75.6135   23.0489  -73.9936 H         1 UNK         0.1245 
    108 H108      -76.5171   24.4700  -72.0524 H         1 UNK         0.0781 
    109 H109      -75.9038   25.8813  -72.8764 H         1 UNK         0.0781 
    110 H110      -73.4341   25.0623  -69.7531 H         1 UNK         0.0836 
    111 H111      -75.0166   24.3255  -69.7505 H         1 UNK         0.0836 
    112 H112      -77.7036   24.8034  -75.0598 H         1 UNK         0.3022 
    113 H113      -79.9686   22.1249  -75.0056 H         1 UNK         0.0747 
    114 H114      -81.6788   23.6401  -74.0152 H         1 UNK         0.0793 
    115 H115      -80.6169   23.0195  -72.7598 H         1 UNK         0.0793 
    116 H116      -80.4065   24.6621  -73.3486 H         1 UNK         0.0793 
    117 H117      -80.2841   24.8599  -75.8020 H         1 UNK         0.3047 
    118 H118      -78.2683   24.9088  -78.6155 H         1 UNK         0.0822 
    119 H119      -80.2437   25.1515  -80.0900 H         1 UNK         0.0807 
    120 H120      -81.2814   24.4013  -78.8756 H         1 UNK         0.0807 
    121 H121      -80.0243   23.4627  -79.6692 H         1 UNK         0.0807 
    122 H122      -80.3903   26.6296  -78.1065 H         1 UNK         0.2946 
    123 H123      -78.4824   28.9543  -76.6186 H         1 UNK         0.1144 
    124 H124      -81.3727   28.3380  -77.4504 H         1 UNK         0.0793 
    125 H125      -80.0609   28.7798  -78.5443 H         1 UNK         0.0793 
    126 H126      -80.6250   29.9253  -77.3492 H         1 UNK         0.0793 
    127 H127      -79.3323   29.2235  -74.5928 H         1 UNK         0.2896 
@<TRIPOS>BOND
     1    1    2 1    
     2    1   67 1    
     3    1   68 1    
     4    1   69 1    
     5    2    3 2    
     6    2    4 am   BACKBONE|DICT|INTERRES
     7    4    5 1    
     8    4   70 1    
     9    5    6 1    
    10    5   65 1    
    11    5   71 1    
    12    6    7 1    
    13    6   72 1    
    14    6   73 1    
    15    7    8 1    
    16    8    9 1    
    17    8   74 1    
    18    8   75 1    
    19    9   10 ar   
    20    9   14 ar   
    21   10   11 ar   
    22   10   76 1    
    23   11   12 ar   
    24   11   48 1    
    25   12   13 ar   
    26   12   77 1    
    27   13   14 ar   
    28   13   15 1    
    29   14   78 1    
    30   15   16 1    
    31   15   79 1    
    32   15   80 1    
    33   16   17 1    
    34   17   18 1    
    35   17   81 1    
    36   17   82 1    
    37   18   19 1    
    38   18   22 1    
    39   18   83 1    
    40   19   20 am   BACKBONE|DICT|INTERRES
    41   19   21 2    
    42   20   84 1    
    43   20   85 1    
    44   22   23 am   BACKBONE|DICT|INTERRES
    45   22   86 1    
    46   23   24 2    
    47   23   25 1    
    48   25   26 1    
    49   25   27 1    
    50   25   87 1    
    51   26   88 1    
    52   26   89 1    
    53   26   90 1    
    54   27   28 am   BACKBONE|DICT|INTERRES
    55   27   91 1    
    56   28   29 2    
    57   28   30 1    
    58   30   31 1    
    59   30   32 1    
    60   30   92 1    
    61   31   93 1    
    62   31   94 1    
    63   31   95 1    
    64   32   33 am   BACKBONE|DICT|INTERRES
    65   32   96 1    
    66   33   34 2    
    67   33   35 1    
    68   35   36 1    
    69   35   37 1    
    70   35   97 1    
    71   36   98 1    
    72   36   99 1    
    73   36  100 1    
    74   37   38 am   BACKBONE|DICT|INTERRES
    75   37  101 1    
    76   38   39 2    
    77   38   40 1    
    78   40   41 1    
    79   40   42 1    
    80   40  102 1    
    81   41  103 1    
    82   41  104 1    
    83   41  105 1    
    84   42   43 am   BACKBONE|DICT|INTERRES
    85   42  106 1    
    86   43   44 2    
    87   43   45 1    
    88   45   46 1    
    89   45   49 1    
    90   45  107 1    
    91   46   47 1    
    92   46  108 1    
    93   46  109 1    
    94   47   48 1    
    95   48  110 1    
    96   48  111 1    
    97   49   50 am   BACKBONE|DICT|INTERRES
    98   49  112 1    
    99   50   51 2    
   100   50   52 1    
   101   52   53 1    
   102   52   54 1    
   103   52  113 1    
   104   53  114 1    
   105   53  115 1    
   106   53  116 1    
   107   54   55 am   BACKBONE|DICT|INTERRES
   108   54  117 1    
   109   55   56 2    
   110   55   57 1    
   111   57   58 1    
   112   57   59 1    
   113   57  118 1    
   114   58  119 1    
   115   58  120 1    
   116   58  121 1    
   117   59   60 am   BACKBONE|DICT|INTERRES
   118   59  122 1    
   119   60   61 2    
   120   60   62 1    
   121   62   63 1    
   122   62   64 1    
   123   62  123 1    
   124   63  124 1    
   125   63  125 1    
   126   63  126 1    
   127   64   65 am   BACKBONE|DICT|INTERRES
   128   64  127 1    
   129   65   66 2    
@<TRIPOS>SUBSTRUCTURE
     1 UNK         1 GROUP             0       ****    0 ROOT    
