@<TRIPOS>MOLECULE
3R135
127   129    1
SMALL
USER_CHARGES


@<TRIPOS>ATOM
      1 CA        -82.5598   27.1719  -70.2499 C.3       0 UNK        -0.1998 
      2 C         -82.0055   27.0999  -71.6639 C.2       0 UNK         0.4909 
      3 O         -81.0357   26.3800  -71.8975 O.2       0 UNK        -0.5240 
      4 N         -82.6242   27.8288  -72.6041 N.am      1 UNK        -0.4739 
      5 CA        -82.2747   28.0061  -74.0280 C.3       1 UNK         0.0864 
      6 C6        -80.8804   28.6434  -74.2765 C.3       11 UNK        -0.0881 
      7 S7        -80.6101   30.1960  -73.3535 S.3       11 UNK        -0.2682 
      8 C8        -78.7992   30.3782  -73.4967 C.3       11 UNK         0.0289 
      9 C9        -78.0131   29.8094  -72.3162 C.ar      11 UNK        -0.0687 
     10 C10       -78.3226   28.5654  -71.7561 C.ar      11 UNK        -0.0823 
     11 C11       -77.5538   28.0313  -70.7206 C.ar      11 UNK        -0.0830 
     12 C12       -76.4534   28.7474  -70.2448 C.ar      11 UNK        -0.1021 
     13 C13       -76.1227   29.9891  -70.7947 C.ar      11 UNK        -0.0753 
     14 C14       -76.9190   30.5215  -71.8152 C.ar      11 UNK        -0.0933 
     15 C15       -74.8790   30.7244  -70.3064 C.3       11 UNK         0.0166 
     16 S16       -73.7766   31.2804  -71.6534 S.3       11 UNK        -0.2615 
     17 C17       -73.6322   29.7870  -72.7058 C.3       11 UNK        -0.0865 
     18 CA        -73.2002   30.0951  -74.1613 C.3       10 UNK         0.0862 
     19 C         -74.2329   30.9700  -74.9363 C.2       10 UNK         0.5551 
     20 N         -73.8404   32.0964  -75.5200 N.am      10 UNK        -0.7319 
     21 O         -75.4046   30.6165  -75.0213 O.2       10 UNK        -0.5018 
     22 N         -71.8144   30.5982  -74.1931 N.am      10 UNK        -0.4509 
     23 C         -70.9075   30.5058  -75.1779 C.2       10 UNK         0.4899 
     24 O         -69.8281   31.0906  -75.0945 O.2       10 UNK        -0.4839 
     25 CA        -71.2020   29.6390  -76.4258 C.3       9 UNK         0.0222 
     26 CB        -70.1126   29.7611  -77.5121 C.3       9 UNK        -0.1966 
     27 N         -71.4314   28.2277  -76.1000 N.am      9 UNK        -0.4218 
     28 C         -70.6344   27.3923  -75.4127 C.2       9 UNK         0.5020 
     29 O         -69.5072   27.6847  -75.0115 O.2       9 UNK        -0.5274 
     30 CA        -71.1892   25.9880  -75.0944 C.3       8 UNK         0.0270 
     31 CB        -71.5681   25.8907  -73.6073 C.3       8 UNK        -0.1976 
     32 N         -72.3510   25.6197  -75.9091 N.am      8 UNK        -0.4313 
     33 C         -72.2980   25.3533  -77.2224 C.2       8 UNK         0.5041 
     34 O         -71.2433   25.2746  -77.8540 O.2       8 UNK        -0.5577 
     35 CA        -73.6280   25.1702  -77.9781 C.3       7 UNK         0.0284 
     36 CB        -73.8440   23.6844  -78.3114 C.3       7 UNK        -0.1958 
     37 N         -74.8188   25.6955  -77.2966 N.am      7 UNK        -0.4454 
     38 C         -75.0185   26.9668  -76.9150 C.2       7 UNK         0.5089 
     39 O         -74.1952   27.8667  -77.0862 O.2       7 UNK        -0.5125 
     40 CA        -76.3271   27.2707  -76.1594 C.3       6 UNK         0.0408 
     41 CB        -77.4666   27.5815  -77.1403 C.3       6 UNK        -0.1791 
     42 N         -76.7412   26.1956  -75.2528 N.am      6 UNK        -0.4762 
     43 C         -76.0204   25.7606  -74.2068 C.2       6 UNK         0.5007 
     44 O         -74.9229   26.2240  -73.8945 O.2       6 UNK        -0.5032 
     45 CA        -76.5912   24.5624  -73.4273 C.3       5 UNK         0.0783 
     46 C46       -77.6507   24.9860  -72.3761 C.3       11 UNK        -0.0857 
     47 S47       -76.8805   25.3376  -70.7587 S.3       11 UNK        -0.2512 
     48 C48       -77.9148   26.6862  -70.1083 C.3       11 UNK         0.0225 
     49 N         -77.1032   23.5529  -74.3580 N.am      5 UNK        -0.4615 
     50 C         -76.3318   22.6377  -74.9626 C.2       4 UNK         0.5053 
     51 O         -75.1263   22.5122  -74.7480 O.2       4 UNK        -0.5105 
     52 CA        -77.0046   21.7017  -75.9832 C.3       4 UNK         0.0263 
     53 CB        -77.4651   20.4052  -75.2979 C.3       4 UNK        -0.1981 
     54 N         -78.1396   22.3071  -76.6831 N.am      4 UNK        -0.4224 
     55 C         -78.0513   23.3493  -77.5213 C.2       3 UNK         0.4895 
     56 O         -76.9972   23.9115  -77.8089 O.2       3 UNK        -0.5091 
     57 CA        -79.3703   23.8944  -78.0914 C.3       3 UNK         0.0250 
     58 CB        -79.7641   23.1300  -79.3651 C.3       3 UNK        -0.1996 
     59 N         -80.4833   23.8697  -77.1359 N.am      3 UNK        -0.4254 
     60 C         -80.4795   24.4757  -75.9409 C.2       2 UNK         0.5004 
     61 O         -79.5039   25.0727  -75.4720 O.2       2 UNK        -0.5226 
     62 CA        -81.7634   24.3496  -75.1084 C.3       2 UNK         0.0269 
     63 CB        -81.6414   23.1828  -74.1153 C.3       2 UNK        -0.1926 
     64 N         -81.9894   25.5832  -74.3635 N.am      2 UNK        -0.4687 
     65 C         -82.4155   26.7343  -74.8926 C.2       1 UNK         0.5165 
     66 O         -82.8808   26.8249  -76.0300 O.2       1 UNK        -0.5079 
     67 H67       -82.8683   26.1811  -69.9176 H         1 UNK         0.0900 
     68 H68       -83.4200   27.8375  -70.1809 H         1 UNK         0.0900 
     69 H69       -81.7925   27.5371  -69.5677 H         1 UNK         0.0900 
     70 H70       -83.4324   28.3645  -72.3194 H         1 UNK         0.2959 
     71 H71       -83.0182   28.7067  -74.4123 H         1 UNK         0.1079 
     72 H72       -80.0876   27.9298  -74.0506 H         1 UNK         0.0837 
     73 H73       -80.7633   28.8764  -75.3370 H         1 UNK         0.0837 
     74 H74       -78.5862   31.4428  -73.6036 H         1 UNK         0.0685 
     75 H75       -78.4475   29.9076  -74.4162 H         1 UNK         0.0685 
     76 H76       -79.1632   28.0022  -72.1222 H         1 UNK         0.1434 
     77 H77       -75.8463   28.3264  -69.4547 H         1 UNK         0.1329 
     78 H78       -76.6548   31.4750  -72.2520 H         1 UNK         0.1335 
     79 H79       -75.1876   31.5923  -69.7224 H         1 UNK         0.0680 
     80 H80       -74.2985   30.0907  -69.6340 H         1 UNK         0.0680 
     81 H81       -74.5739   29.2375  -72.7297 H         1 UNK         0.1032 
     82 H82       -72.9177   29.1057  -72.2414 H         1 UNK         0.1032 
     83 H83       -73.2375   29.1329  -74.6646 H         1 UNK         0.0461 
     84 H84       -72.8897   32.4170  -75.4321 H         1 UNK         0.3453 
     85 H85       -74.5168   32.6510  -76.0203 H         1 UNK         0.3453 
     86 H86       -71.5727   31.1646  -73.3932 H         1 UNK         0.2984 
     87 H87       -72.1304   30.0112  -76.8599 H         1 UNK         0.0554 
     88 H88       -70.3743   29.1870  -78.4010 H         1 UNK         0.0847 
     89 H89       -69.1441   29.4055  -77.1585 H         1 UNK         0.0847 
     90 H90       -69.9849   30.7987  -77.8229 H         1 UNK         0.0847 
     91 H91       -72.3444   27.8804  -76.3810 H         1 UNK         0.3141 
     92 H92       -70.3931   25.2674  -75.2928 H         1 UNK         0.0743 
     93 H93       -72.3270   26.6256  -73.3358 H         1 UNK         0.0784 
     94 H94       -71.9529   24.9020  -73.3565 H         1 UNK         0.0784 
     95 H95       -70.7004   26.0718  -72.9715 H         1 UNK         0.0784 
     96 H96       -73.2571   25.6663  -75.4585 H         1 UNK         0.3213 
     97 H97       -73.5300   25.7181  -78.9175 H         1 UNK         0.0855 
     98 H98       -74.0559   23.0982  -77.4164 H         1 UNK         0.0814 
     99 H99       -72.9610   23.2522  -78.7844 H         1 UNK         0.0814 
    100 H100      -74.6725   23.5505  -79.0067 H         1 UNK         0.0814 
    101 H101      -75.5893   25.0405  -77.1840 H         1 UNK         0.3105 
    102 H102      -76.1567   28.1568  -75.5466 H         1 UNK         0.0547 
    103 H103      -77.2081   28.4265  -77.7797 H         1 UNK         0.0837 
    104 H104      -77.6803   26.7330  -77.7903 H         1 UNK         0.0837 
    105 H105      -78.3850   27.8415  -76.6135 H         1 UNK         0.0837 
    106 H106      -77.6442   25.7646  -75.4326 H         1 UNK         0.3020 
    107 H107      -75.7503   24.1114  -72.8939 H         1 UNK         0.1245 
    108 H108      -78.2486   25.8326  -72.7186 H         1 UNK         0.0781 
    109 H109      -78.3642   24.1776  -72.2088 H         1 UNK         0.0781 
    110 H110      -78.9677   26.4516  -70.2677 H         1 UNK         0.0836 
    111 H111      -77.7807   26.7372  -69.0268 H         1 UNK         0.0836 
    112 H112      -78.0714   23.6473  -74.6367 H         1 UNK         0.3022 
    113 H113      -76.2529   21.4442  -76.7327 H         1 UNK         0.0747 
    114 H114      -77.8620   19.6926  -76.0211 H         1 UNK         0.0793 
    115 H115      -76.6330   19.9168  -74.7885 H         1 UNK         0.0793 
    116 H116      -78.2378   20.5944  -74.5516 H         1 UNK         0.0793 
    117 H117      -79.0517   21.9141  -76.5027 H         1 UNK         0.3047 
    118 H118      -79.2002   24.9381  -78.3620 H         1 UNK         0.0822 
    119 H119      -80.6391   23.5738  -79.8405 H         1 UNK         0.0807 
    120 H120      -79.9884   22.0830  -79.1575 H         1 UNK         0.0807 
    121 H121      -78.9556   23.1508  -80.0976 H         1 UNK         0.0807 
    122 H122      -81.3200   23.3891  -77.4351 H         1 UNK         0.2946 
    123 H123      -82.6142   24.1737  -75.7706 H         1 UNK         0.1144 
    124 H124      -82.5464   23.0776  -73.5166 H         1 UNK         0.0793 
    125 H125      -80.8034   23.3222  -73.4305 H         1 UNK         0.0793 
    126 H126      -81.4861   22.2371  -74.6360 H         1 UNK         0.0793 
    127 H127      -81.5689   25.6435  -73.4375 H         1 UNK         0.2896 
@<TRIPOS>BOND
     1    1    2 1    
     2    1   67 1    
     3    1   68 1    
     4    1   69 1    
     5    2    3 2    
     6    2    4 am   BACKBONE|DICT|INTERRES
     7    4    5 1    
     8    4   70 1    
     9    5    6 1    
    10    5   65 1    
    11    5   71 1    
    12    6    7 1    
    13    6   72 1    
    14    6   73 1    
    15    7    8 1    
    16    8    9 1    
    17    8   74 1    
    18    8   75 1    
    19    9   10 ar   
    20    9   14 ar   
    21   10   11 ar   
    22   10   76 1    
    23   11   12 ar   
    24   11   48 1    
    25   12   13 ar   
    26   12   77 1    
    27   13   14 ar   
    28   13   15 1    
    29   14   78 1    
    30   15   16 1    
    31   15   79 1    
    32   15   80 1    
    33   16   17 1    
    34   17   18 1    
    35   17   81 1    
    36   17   82 1    
    37   18   19 1    
    38   18   22 1    
    39   18   83 1    
    40   19   20 am   BACKBONE|DICT|INTERRES
    41   19   21 2    
    42   20   84 1    
    43   20   85 1    
    44   22   23 am   BACKBONE|DICT|INTERRES
    45   22   86 1    
    46   23   24 2    
    47   23   25 1    
    48   25   26 1    
    49   25   27 1    
    50   25   87 1    
    51   26   88 1    
    52   26   89 1    
    53   26   90 1    
    54   27   28 am   BACKBONE|DICT|INTERRES
    55   27   91 1    
    56   28   29 2    
    57   28   30 1    
    58   30   31 1    
    59   30   32 1    
    60   30   92 1    
    61   31   93 1    
    62   31   94 1    
    63   31   95 1    
    64   32   33 am   BACKBONE|DICT|INTERRES
    65   32   96 1    
    66   33   34 2    
    67   33   35 1    
    68   35   36 1    
    69   35   37 1    
    70   35   97 1    
    71   36   98 1    
    72   36   99 1    
    73   36  100 1    
    74   37   38 am   BACKBONE|DICT|INTERRES
    75   37  101 1    
    76   38   39 2    
    77   38   40 1    
    78   40   41 1    
    79   40   42 1    
    80   40  102 1    
    81   41  103 1    
    82   41  104 1    
    83   41  105 1    
    84   42   43 am   BACKBONE|DICT|INTERRES
    85   42  106 1    
    86   43   44 2    
    87   43   45 1    
    88   45   46 1    
    89   45   49 1    
    90   45  107 1    
    91   46   47 1    
    92   46  108 1    
    93   46  109 1    
    94   47   48 1    
    95   48  110 1    
    96   48  111 1    
    97   49   50 am   BACKBONE|DICT|INTERRES
    98   49  112 1    
    99   50   51 2    
   100   50   52 1    
   101   52   53 1    
   102   52   54 1    
   103   52  113 1    
   104   53  114 1    
   105   53  115 1    
   106   53  116 1    
   107   54   55 am   BACKBONE|DICT|INTERRES
   108   54  117 1    
   109   55   56 2    
   110   55   57 1    
   111   57   58 1    
   112   57   59 1    
   113   57  118 1    
   114   58  119 1    
   115   58  120 1    
   116   58  121 1    
   117   59   60 am   BACKBONE|DICT|INTERRES
   118   59  122 1    
   119   60   61 2    
   120   60   62 1    
   121   62   63 1    
   122   62   64 1    
   123   62  123 1    
   124   63  124 1    
   125   63  125 1    
   126   63  126 1    
   127   64   65 am   BACKBONE|DICT|INTERRES
   128   64  127 1    
   129   65   66 2    
@<TRIPOS>SUBSTRUCTURE
     1 UNK         1 GROUP             0       ****    0 ROOT    
