@<TRIPOS>MOLECULE
3R135
127   129    1
SMALL
USER_CHARGES


@<TRIPOS>ATOM
      1 CA        -85.6534   28.9426  -73.0107 C.3       0 UNK        -0.1998 
      2 C         -84.3737   28.1548  -73.2487 C.2       0 UNK         0.4909 
      3 O         -84.1187   27.1820  -72.5383 O.2       0 UNK        -0.5240 
      4 N         -83.5742   28.5744  -74.2395 N.am      1 UNK        -0.4739 
      5 CA        -82.3085   27.9680  -74.6715 C.3       1 UNK         0.0864 
      6 C6        -81.1795   28.0284  -73.6056 C.3       11 UNK        -0.0881 
      7 S7        -80.6500   29.7373  -73.2420 S.3       11 UNK        -0.2682 
      8 C8        -78.9244   29.7310  -73.8428 C.3       11 UNK         0.0289 
      9 C9        -77.9057   29.2633  -72.8023 C.ar      11 UNK        -0.0687 
     10 C10       -78.1154   28.1097  -72.0369 C.ar      11 UNK        -0.0823 
     11 C11       -77.1779   27.6970  -71.0877 C.ar      11 UNK        -0.0830 
     12 C12       -76.0112   28.4438  -70.9051 C.ar      11 UNK        -0.1021 
     13 C13       -75.7801   29.5936  -71.6654 C.ar      11 UNK        -0.0753 
     14 C14       -76.7269   29.9940  -72.6141 C.ar      11 UNK        -0.0933 
     15 C15       -74.5230   30.4190  -71.4373 C.3       11 UNK         0.0166 
     16 S16       -73.0707   29.6680  -72.2327 S.3       11 UNK        -0.2615 
     17 C17       -71.8007   30.9293  -71.8689 C.3       11 UNK        -0.0865 
     18 CA        -71.4400   31.7861  -73.1182 C.3       10 UNK         0.0862 
     19 C         -70.5851   33.0436  -72.7652 C.2       10 UNK         0.5551 
     20 N         -69.7189   33.5207  -73.6511 N.am      10 UNK        -0.7319 
     21 O         -70.7298   33.6187  -71.6889 O.2       10 UNK        -0.5018 
     22 N         -70.9186   30.9750  -74.2359 N.am      10 UNK        -0.4509 
     23 C         -69.7684   30.2896  -74.2479 C.2       10 UNK         0.4899 
     24 O         -68.9754   30.2466  -73.3057 O.2       10 UNK        -0.4839 
     25 CA        -69.4720   29.4911  -75.5278 C.3       9 UNK         0.0222 
     26 CB        -67.9609   29.3655  -75.7962 C.3       9 UNK        -0.1966 
     27 N         -70.0546   28.1541  -75.4266 N.am      9 UNK        -0.4218 
     28 C         -71.3464   27.8664  -75.6272 C.2       9 UNK         0.5020 
     29 O         -72.1875   28.6970  -75.9810 O.2       9 UNK        -0.5274 
     30 CA        -71.7587   26.4099  -75.3517 C.3       8 UNK         0.0270 
     31 CB        -72.0523   26.2103  -73.8558 C.3       8 UNK        -0.1976 
     32 N         -72.9301   26.0115  -76.1372 N.am      8 UNK        -0.4313 
     33 C         -72.9033   25.7859  -77.4600 C.2       8 UNK         0.5041 
     34 O         -71.8708   25.8413  -78.1315 O.2       8 UNK        -0.5577 
     35 CA        -74.2180   25.4047  -78.1717 C.3       7 UNK         0.0284 
     36 CB        -74.2045   23.9144  -78.5526 C.3       7 UNK        -0.1958 
     37 N         -75.4284   25.6845  -77.3977 N.am      7 UNK        -0.4454 
     38 C         -75.9088   26.9059  -77.1284 C.2       7 UNK         0.5089 
     39 O         -75.4377   27.9430  -77.5946 O.2       7 UNK        -0.5125 
     40 CA        -77.1082   26.9924  -76.1641 C.3       6 UNK         0.0408 
     41 CB        -78.4161   27.1665  -76.9518 C.3       6 UNK        -0.1791 
     42 N         -77.2424   25.8463  -75.2571 N.am      6 UNK        -0.4762 
     43 C         -76.3305   25.4647  -74.3485 C.2       6 UNK         0.5007 
     44 O         -75.2451   26.0239  -74.2040 O.2       6 UNK        -0.5032 
     45 CA        -76.6499   24.2074  -73.5211 C.3       5 UNK         0.0783 
     46 C46       -77.5516   24.5125  -72.2983 C.3       11 UNK        -0.0857 
     47 S47       -76.5663   24.9957  -70.8395 S.3       11 UNK        -0.2512 
     48 C48       -77.4451   26.4679  -70.2312 C.3       11 UNK         0.0225 
     49 N         -77.2284   23.1719  -74.3801 N.am      5 UNK        -0.4615 
     50 C         -76.5150   22.2151  -74.9894 C.2       4 UNK         0.5053 
     51 O         -75.2980   22.0813  -74.8614 O.2       4 UNK        -0.5105 
     52 CA        -77.2783   21.2339  -75.8974 C.3       4 UNK         0.0263 
     53 CB        -77.6936   19.9843  -75.1044 C.3       4 UNK        -0.1981 
     54 N         -78.4613   21.8159  -76.5348 N.am      4 UNK        -0.4224 
     55 C         -78.4294   22.8046  -77.4386 C.2       3 UNK         0.4895 
     56 O         -77.3952   23.3358  -77.8408 O.2       3 UNK        -0.5091 
     57 CA        -79.7859   23.3161  -77.9512 C.3       3 UNK         0.0250 
     58 CB        -80.2639   22.4657  -79.1391 C.3       3 UNK        -0.1996 
     59 N         -80.8481   23.3836  -76.9379 N.am      3 UNK        -0.4254 
     60 C         -80.7654   24.0281  -75.7657 C.2       2 UNK         0.5004 
     61 O         -79.7282   24.5261  -75.3187 O.2       2 UNK        -0.5226 
     62 CA        -82.0523   24.1363  -74.9360 C.3       2 UNK         0.0269 
     63 CB        -81.9960   23.1827  -73.7320 C.3       2 UNK        -0.1926 
     64 N         -82.1986   25.5109  -74.4586 N.am      2 UNK        -0.4687 
     65 C         -82.5318   26.5497  -75.2383 C.2       1 UNK         0.5165 
     66 O         -82.9692   26.4254  -76.3839 O.2       1 UNK        -0.5079 
     67 H67       -85.6654   29.3395  -71.9959 H         1 UNK         0.0900 
     68 H68       -85.7534   29.7789  -73.7025 H         1 UNK         0.0900 
     69 H69       -86.5209   28.2949  -73.1338 H         1 UNK         0.0900 
     70 H70       -83.8640   29.3732  -74.7868 H         1 UNK         0.2959 
     71 H71       -81.9714   28.5604  -75.5242 H         1 UNK         0.1079 
     72 H72       -80.3157   27.4605  -73.9561 H         1 UNK         0.0837 
     73 H73       -81.4910   27.5640  -72.6689 H         1 UNK         0.0837 
     74 H74       -78.8433   29.1165  -74.7382 H         1 UNK         0.0685 
     75 H75       -78.6892   30.7487  -74.1581 H         1 UNK         0.0685 
     76 H76       -79.0167   27.5319  -72.1579 H         1 UNK         0.1434 
     77 H77       -75.2828   28.1323  -70.1687 H         1 UNK         0.1329 
     78 H78       -76.5470   30.8841  -73.2014 H         1 UNK         0.1335 
     79 H79       -74.6587   31.4318  -71.8204 H         1 UNK         0.0680 
     80 H80       -74.3396   30.5151  -70.3659 H         1 UNK         0.0680 
     81 H81       -70.9142   30.4287  -71.4773 H         1 UNK         0.1032 
     82 H82       -72.1610   31.5615  -71.0554 H         1 UNK         0.1032 
     83 H83       -72.3754   32.2059  -73.4901 H         1 UNK         0.0461 
     84 H84       -69.6006   33.0676  -74.5429 H         1 UNK         0.3453 
     85 H85       -69.1776   34.3396  -73.4228 H         1 UNK         0.3453 
     86 H86       -71.5272   30.8952  -75.0395 H         1 UNK         0.2984 
     87 H87       -69.9163   30.0158  -76.3767 H         1 UNK         0.0554 
     88 H88       -67.4946   30.3496  -75.8605 H         1 UNK         0.0847 
     89 H89       -67.7673   28.8546  -76.7396 H         1 UNK         0.0847 
     90 H90       -67.4487   28.8145  -75.0063 H         1 UNK         0.0847 
     91 H91       -69.4408   27.4221  -75.0985 H         1 UNK         0.3141 
     92 H92       -70.9296   25.7549  -75.6286 H         1 UNK         0.0743 
     93 H93       -72.8421   26.8785  -73.5102 H         1 UNK         0.0784 
     94 H94       -72.3625   25.1873  -73.6420 H         1 UNK         0.0784 
     95 H95       -71.1691   26.4164  -73.2499 H         1 UNK         0.0784 
     96 H96       -73.8191   26.0019  -75.6462 H         1 UNK         0.3213 
     97 H97       -74.2640   25.9911  -79.0919 H         1 UNK         0.0855 
     98 H98       -74.2253   23.2727  -77.6706 H         1 UNK         0.0814 
     99 H99       -73.3089   23.6606  -79.1215 H         1 UNK         0.0814 
    100 H100      -75.0616   23.6574  -79.1750 H         1 UNK         0.0814 
    101 H101      -75.9363   24.8846  -77.0403 H         1 UNK         0.3105 
    102 H102      -76.9567   27.8770  -75.5429 H         1 UNK         0.0547 
    103 H103      -78.5904   26.3260  -77.6230 H         1 UNK         0.0837 
    104 H104      -78.3864   28.0700  -77.5621 H         1 UNK         0.0837 
    105 H105      -79.2780   27.2483  -76.2903 H         1 UNK         0.0837 
    106 H106      -78.1175   25.3268  -75.3152 H         1 UNK         0.3020 
    107 H107      -75.6936   23.8362  -73.1437 H         1 UNK         0.1245 
    108 H108      -78.1041   23.6171  -72.0086 H         1 UNK         0.0781 
    109 H109      -78.3120   25.2592  -72.5313 H         1 UNK         0.0781 
    110 H110      -77.1230   26.6669  -69.2079 H         1 UNK         0.0836 
    111 H111      -78.5143   26.2576  -70.1723 H         1 UNK         0.0836 
    112 H112      -78.2144   23.2634  -74.5938 H         1 UNK         0.3022 
    113 H113      -76.5932   20.9242  -76.6897 H         1 UNK         0.0747 
    114 H114      -78.1565   19.2386  -75.7512 H         1 UNK         0.0793 
    115 H115      -76.8272   19.5124  -74.6383 H         1 UNK         0.0793 
    116 H116      -78.3999   20.2261  -74.3090 H         1 UNK         0.0793 
    117 H117      -79.3602   21.4483  -76.2591 H         1 UNK         0.3047 
    118 H118      -79.6275   24.3333  -78.3127 H         1 UNK         0.0822 
    119 H119      -81.1574   22.8897  -79.5979 H         1 UNK         0.0807 
    120 H120      -80.4930   21.4425  -78.8387 H         1 UNK         0.0807 
    121 H121      -79.4989   22.4139  -79.9154 H         1 UNK         0.0807 
    122 H122      -81.7396   22.9926  -77.2077 H         1 UNK         0.2946 
    123 H123      -82.9154   23.8805  -75.5550 H         1 UNK         0.1144 
    124 H124      -81.9088   22.1456  -74.0586 H         1 UNK         0.0793 
    125 H125      -82.8997   23.2561  -73.1266 H         1 UNK         0.0793 
    126 H126      -81.1422   23.3942  -73.0863 H         1 UNK         0.0793 
    127 H127      -81.8761   25.6976  -73.5208 H         1 UNK         0.2896 
@<TRIPOS>BOND
     1    1    2 1    
     2    1   67 1    
     3    1   68 1    
     4    1   69 1    
     5    2    3 2    
     6    2    4 am   BACKBONE|DICT|INTERRES
     7    4    5 1    
     8    4   70 1    
     9    5    6 1    
    10    5   65 1    
    11    5   71 1    
    12    6    7 1    
    13    6   72 1    
    14    6   73 1    
    15    7    8 1    
    16    8    9 1    
    17    8   74 1    
    18    8   75 1    
    19    9   10 ar   
    20    9   14 ar   
    21   10   11 ar   
    22   10   76 1    
    23   11   12 ar   
    24   11   48 1    
    25   12   13 ar   
    26   12   77 1    
    27   13   14 ar   
    28   13   15 1    
    29   14   78 1    
    30   15   16 1    
    31   15   79 1    
    32   15   80 1    
    33   16   17 1    
    34   17   18 1    
    35   17   81 1    
    36   17   82 1    
    37   18   19 1    
    38   18   22 1    
    39   18   83 1    
    40   19   20 am   BACKBONE|DICT|INTERRES
    41   19   21 2    
    42   20   84 1    
    43   20   85 1    
    44   22   23 am   BACKBONE|DICT|INTERRES
    45   22   86 1    
    46   23   24 2    
    47   23   25 1    
    48   25   26 1    
    49   25   27 1    
    50   25   87 1    
    51   26   88 1    
    52   26   89 1    
    53   26   90 1    
    54   27   28 am   BACKBONE|DICT|INTERRES
    55   27   91 1    
    56   28   29 2    
    57   28   30 1    
    58   30   31 1    
    59   30   32 1    
    60   30   92 1    
    61   31   93 1    
    62   31   94 1    
    63   31   95 1    
    64   32   33 am   BACKBONE|DICT|INTERRES
    65   32   96 1    
    66   33   34 2    
    67   33   35 1    
    68   35   36 1    
    69   35   37 1    
    70   35   97 1    
    71   36   98 1    
    72   36   99 1    
    73   36  100 1    
    74   37   38 am   BACKBONE|DICT|INTERRES
    75   37  101 1    
    76   38   39 2    
    77   38   40 1    
    78   40   41 1    
    79   40   42 1    
    80   40  102 1    
    81   41  103 1    
    82   41  104 1    
    83   41  105 1    
    84   42   43 am   BACKBONE|DICT|INTERRES
    85   42  106 1    
    86   43   44 2    
    87   43   45 1    
    88   45   46 1    
    89   45   49 1    
    90   45  107 1    
    91   46   47 1    
    92   46  108 1    
    93   46  109 1    
    94   47   48 1    
    95   48  110 1    
    96   48  111 1    
    97   49   50 am   BACKBONE|DICT|INTERRES
    98   49  112 1    
    99   50   51 2    
   100   50   52 1    
   101   52   53 1    
   102   52   54 1    
   103   52  113 1    
   104   53  114 1    
   105   53  115 1    
   106   53  116 1    
   107   54   55 am   BACKBONE|DICT|INTERRES
   108   54  117 1    
   109   55   56 2    
   110   55   57 1    
   111   57   58 1    
   112   57   59 1    
   113   57  118 1    
   114   58  119 1    
   115   58  120 1    
   116   58  121 1    
   117   59   60 am   BACKBONE|DICT|INTERRES
   118   59  122 1    
   119   60   61 2    
   120   60   62 1    
   121   62   63 1    
   122   62   64 1    
   123   62  123 1    
   124   63  124 1    
   125   63  125 1    
   126   63  126 1    
   127   64   65 am   BACKBONE|DICT|INTERRES
   128   64  127 1    
   129   65   66 2    
@<TRIPOS>SUBSTRUCTURE
     1 UNK         1 GROUP             0       ****    0 ROOT    
