@<TRIPOS>MOLECULE
3R135
127   129    1
SMALL
USER_CHARGES


@<TRIPOS>ATOM
      1 CA        -83.4600   28.3444  -71.0055 C.3       0 UNK        -0.1998 
      2 C         -83.2768   28.3843  -72.5152 C.2       0 UNK         0.4909 
      3 O         -84.2591   28.3147  -73.2543 O.2       0 UNK        -0.5240 
      4 N         -82.0246   28.4983  -72.9764 N.am      1 UNK        -0.4739 
      5 CA        -81.6509   28.5386  -74.3959 C.3       1 UNK         0.0864 
      6 C6        -80.1989   29.0342  -74.5989 C.3       11 UNK        -0.0881 
      7 S7        -79.9138   30.7438  -74.0171 S.3       11 UNK        -0.2682 
      8 C8        -79.4036   30.5477  -72.2736 C.3       11 UNK         0.0289 
      9 C9        -78.3228   29.4931  -72.0808 C.ar      11 UNK        -0.0687 
     10 C10       -78.6228   28.2892  -71.4342 C.ar      11 UNK        -0.0823 
     11 C11       -77.6456   27.3026  -71.2781 C.ar      11 UNK        -0.0830 
     12 C12       -76.3536   27.5387  -71.7532 C.ar      11 UNK        -0.1021 
     13 C13       -76.0448   28.7316  -72.4116 C.ar      11 UNK        -0.0753 
     14 C14       -77.0301   29.7104  -72.5666 C.ar      11 UNK        -0.0933 
     15 C15       -74.6603   28.9265  -73.0022 C.3       11 UNK         0.0166 
     16 S16       -73.4901   29.6094  -71.7880 S.3       11 UNK        -0.2615 
     17 C17       -73.5302   31.3874  -72.2156 C.3       11 UNK        -0.0865 
     18 CA        -72.3953   31.8246  -73.1839 C.3       10 UNK         0.0862 
     19 C         -71.0196   31.9419  -72.4683 C.2       10 UNK         0.5551 
     20 N         -70.7875   33.0395  -71.7606 N.am      10 UNK        -0.7319 
     21 O         -70.1795   31.0460  -72.5178 O.2       10 UNK        -0.5018 
     22 N         -72.3646   30.9708  -74.3784 N.am      10 UNK        -0.4509 
     23 C         -71.7458   31.2460  -75.5304 C.2       10 UNK         0.4899 
     24 O         -71.1496   32.3011  -75.7533 O.2       10 UNK        -0.4839 
     25 CA        -71.8586   30.1693  -76.6293 C.3       9 UNK         0.0222 
     26 CB        -70.8150   30.3420  -77.7540 C.3       9 UNK        -0.1966 
     27 N         -71.8598   28.7914  -76.1150 N.am      9 UNK        -0.4218 
     28 C         -70.8571   28.1614  -75.4764 C.2       9 UNK         0.5020 
     29 O         -69.7828   28.6933  -75.1955 O.2       9 UNK        -0.5274 
     30 CA        -71.0631   26.6795  -75.0933 C.3       8 UNK         0.0270 
     31 CB        -71.2866   26.5315  -73.5794 C.3       8 UNK        -0.1976 
     32 N         -72.1598   26.0256  -75.8140 N.am      8 UNK        -0.4313 
     33 C         -72.1440   25.7511  -77.1285 C.2       8 UNK         0.5041 
     34 O         -71.1532   25.9131  -77.8419 O.2       8 UNK        -0.5577 
     35 CA        -73.4466   25.2416  -77.7779 C.3       7 UNK         0.0284 
     36 CB        -73.3486   23.7348  -78.0660 C.3       7 UNK        -0.1958 
     37 N         -74.6626   25.4978  -77.0009 N.am      7 UNK        -0.4454 
     38 C         -75.1214   26.6972  -76.6131 C.2       7 UNK         0.5089 
     39 O         -74.5703   27.7643  -76.8872 O.2       7 UNK        -0.5125 
     40 CA        -76.3729   26.7008  -75.7155 C.3       6 UNK         0.0408 
     41 CB        -77.6259   26.9455  -76.5685 C.3       6 UNK        -0.1791 
     42 N         -76.5568   25.4814  -74.9136 N.am      6 UNK        -0.4762 
     43 C         -75.6570   24.9639  -74.0572 C.2       6 UNK         0.5007 
     44 O         -74.5376   25.4450  -73.8729 O.2       6 UNK        -0.5032 
     45 CA        -76.0317   23.6574  -73.3302 C.3       5 UNK         0.0783 
     46 C46       -76.5808   23.8949  -71.9018 C.3       11 UNK        -0.0857 
     47 S47       -78.2453   24.6485  -71.8202 S.3       11 UNK        -0.2512 
     48 C48       -77.9932   25.9837  -70.6034 C.3       11 UNK         0.0225 
     49 N         -76.9023   22.7971  -74.1368 N.am      5 UNK        -0.4615 
     50 C         -76.4735   22.0777  -75.1842 C.2       4 UNK         0.5053 
     51 O         -75.3066   22.0649  -75.5743 O.2       4 UNK        -0.5105 
     52 CA        -77.5307   21.2853  -75.9544 C.3       4 UNK         0.0263 
     53 CB        -78.2240   20.2255  -75.0788 C.3       4 UNK        -0.1981 
     54 N         -78.5020   22.2308  -76.4841 N.am      4 UNK        -0.4224 
     55 C         -79.1692   22.1346  -77.6342 C.2       3 UNK         0.4895 
     56 O         -79.1042   21.1593  -78.3849 O.2       3 UNK        -0.5091 
     57 CA        -80.0543   23.3469  -77.9963 C.3       3 UNK         0.0250 
     58 CB        -80.8670   23.1219  -79.2854 C.3       3 UNK        -0.1996 
     59 N         -80.9727   23.7441  -76.9214 N.am      3 UNK        -0.4254 
     60 C         -80.6396   24.3540  -75.7754 C.2       2 UNK         0.5004 
     61 O         -79.4769   24.6017  -75.4380 O.2       2 UNK        -0.5226 
     62 CA        -81.7948   24.7018  -74.8248 C.3       2 UNK         0.0269 
     63 CB        -81.8170   23.7345  -73.6308 C.3       2 UNK        -0.1926 
     64 N         -81.6873   26.0752  -74.3323 N.am      2 UNK        -0.4687 
     65 C         -81.8418   27.1725  -75.0891 C.2       1 UNK         0.5165 
     66 O         -82.1332   27.1396  -76.2857 O.2       1 UNK        -0.5079 
     67 H67       -83.9323   27.4079  -70.7100 H         1 UNK         0.0900 
     68 H68       -82.5115   28.4280  -70.4753 H         1 UNK         0.0900 
     69 H69       -84.1006   29.1652  -70.6841 H         1 UNK         0.0900 
     70 H70       -81.2599   28.5715  -72.3249 H         1 UNK         0.2959 
     71 H71       -82.3214   29.2415  -74.8960 H         1 UNK         0.1079 
     72 H72       -79.4848   28.3485  -74.1421 H         1 UNK         0.0837 
     73 H73       -79.9570   29.0345  -75.6637 H         1 UNK         0.0837 
     74 H74       -79.0320   31.5071  -71.9110 H         1 UNK         0.0685 
     75 H75       -80.2811   30.3212  -71.6671 H         1 UNK         0.0685 
     76 H76       -79.6196   28.1116  -71.0571 H         1 UNK         0.1434 
     77 H77       -75.5889   26.7843  -71.6365 H         1 UNK         0.1329 
     78 H78       -76.8013   30.6318  -73.0842 H         1 UNK         0.1335 
     79 H79       -74.7171   29.5581  -73.8895 H         1 UNK         0.0680 
     80 H80       -74.2803   27.9681  -73.3512 H         1 UNK         0.0680 
     81 H81       -74.4987   31.6272  -72.6563 H         1 UNK         0.1032 
     82 H82       -73.4924   31.9656  -71.2904 H         1 UNK         0.1032 
     83 H83       -72.6462   32.8284  -73.5336 H         1 UNK         0.0461 
     84 H84       -69.9077   33.1326  -71.2773 H         1 UNK         0.3453 
     85 H85       -71.4684   33.7812  -71.7064 H         1 UNK         0.3453 
     86 H86       -72.7650   30.0533  -74.2615 H         1 UNK         0.2984 
     87 H87       -72.8419   30.3116  -77.0800 H         1 UNK         0.0554 
     88 H88       -70.9228   31.3111  -78.2426 H         1 UNK         0.0847 
     89 H89       -70.9305   29.5783  -78.5231 H         1 UNK         0.0847 
     90 H90       -69.7949   30.2836  -77.3733 H         1 UNK         0.0847 
     91 H91       -72.7090   28.2670  -76.3076 H         1 UNK         0.3141 
     92 H92       -70.1398   26.1543  -75.3471 H         1 UNK         0.0743 
     93 H93       -72.1990   27.0278  -73.2529 H         1 UNK         0.0784 
     94 H94       -71.3551   25.4831  -73.2886 H         1 UNK         0.0784 
     95 H95       -70.4609   26.9706  -73.0177 H         1 UNK         0.0784 
     96 H96       -73.0056   25.8375  -75.2846 H         1 UNK         0.3213 
     97 H97       -73.5543   25.7673  -78.7290 H         1 UNK         0.0855 
     98 H98       -73.2524   23.1551  -77.1469 H         1 UNK         0.0814 
     99 H99       -72.4786   23.5105  -78.6848 H         1 UNK         0.0814 
    100 H100      -74.2265   23.3722  -78.6012 H         1 UNK         0.0814 
    101 H101      -75.1730   24.6841  -76.6881 H         1 UNK         0.3105 
    102 H102      -76.2723   27.5334  -75.0187 H         1 UNK         0.0547 
    103 H103      -77.5385   27.8715  -77.1385 H         1 UNK         0.0837 
    104 H104      -77.7945   26.1362  -77.2797 H         1 UNK         0.0837 
    105 H105      -78.5159   27.0319  -75.9477 H         1 UNK         0.0837 
    106 H106      -77.4709   25.0448  -74.9731 H         1 UNK         0.3020 
    107 H107      -75.0872   23.1216  -73.2036 H         1 UNK         0.1245 
    108 H108      -75.8688   24.4877  -71.3262 H         1 UNK         0.0781 
    109 H109      -76.6371   22.9383  -71.3801 H         1 UNK         0.0781 
    110 H110      -77.2190   25.7105  -69.8851 H         1 UNK         0.0836 
    111 H111      -78.9095   26.0916  -70.0211 H         1 UNK         0.0836 
    112 H112      -77.8760   22.7748  -73.8694 H         1 UNK         0.3022 
    113 H113      -77.0271   20.7810  -76.7823 H         1 UNK         0.0747 
    114 H114      -78.9085   19.6168  -75.6699 H         1 UNK         0.0793 
    115 H115      -77.4935   19.5497  -74.6321 H         1 UNK         0.0793 
    116 H116      -78.7977   20.6741  -74.2670 H         1 UNK         0.0793 
    117 H117      -78.6391   23.0908  -75.9558 H         1 UNK         0.3047 
    118 H118      -79.3749   24.1822  -78.1795 H         1 UNK         0.0822 
    119 H119      -80.2124   22.8880  -80.1263 H         1 UNK         0.0807 
    120 H120      -81.4326   24.0128  -79.5594 H         1 UNK         0.0807 
    121 H121      -81.5707   22.2953  -79.1796 H         1 UNK         0.0807 
    122 H122      -81.9483   23.5430  -77.0879 H         1 UNK         0.2946 
    123 H123      -82.7412   24.6112  -75.3629 H         1 UNK         0.1144 
    124 H124      -82.6558   23.9425  -72.9662 H         1 UNK         0.0793 
    125 H125      -80.9003   23.7968  -73.0435 H         1 UNK         0.0793 
    126 H126      -81.9184   22.7014  -73.9661 H         1 UNK         0.0793 
    127 H127      -81.4225   26.1922  -73.3658 H         1 UNK         0.2896 
@<TRIPOS>BOND
     1    1    2 1    
     2    1   67 1    
     3    1   68 1    
     4    1   69 1    
     5    2    3 2    
     6    2    4 am   BACKBONE|DICT|INTERRES
     7    4    5 1    
     8    4   70 1    
     9    5    6 1    
    10    5   65 1    
    11    5   71 1    
    12    6    7 1    
    13    6   72 1    
    14    6   73 1    
    15    7    8 1    
    16    8    9 1    
    17    8   74 1    
    18    8   75 1    
    19    9   10 ar   
    20    9   14 ar   
    21   10   11 ar   
    22   10   76 1    
    23   11   12 ar   
    24   11   48 1    
    25   12   13 ar   
    26   12   77 1    
    27   13   14 ar   
    28   13   15 1    
    29   14   78 1    
    30   15   16 1    
    31   15   79 1    
    32   15   80 1    
    33   16   17 1    
    34   17   18 1    
    35   17   81 1    
    36   17   82 1    
    37   18   19 1    
    38   18   22 1    
    39   18   83 1    
    40   19   20 am   BACKBONE|DICT|INTERRES
    41   19   21 2    
    42   20   84 1    
    43   20   85 1    
    44   22   23 am   BACKBONE|DICT|INTERRES
    45   22   86 1    
    46   23   24 2    
    47   23   25 1    
    48   25   26 1    
    49   25   27 1    
    50   25   87 1    
    51   26   88 1    
    52   26   89 1    
    53   26   90 1    
    54   27   28 am   BACKBONE|DICT|INTERRES
    55   27   91 1    
    56   28   29 2    
    57   28   30 1    
    58   30   31 1    
    59   30   32 1    
    60   30   92 1    
    61   31   93 1    
    62   31   94 1    
    63   31   95 1    
    64   32   33 am   BACKBONE|DICT|INTERRES
    65   32   96 1    
    66   33   34 2    
    67   33   35 1    
    68   35   36 1    
    69   35   37 1    
    70   35   97 1    
    71   36   98 1    
    72   36   99 1    
    73   36  100 1    
    74   37   38 am   BACKBONE|DICT|INTERRES
    75   37  101 1    
    76   38   39 2    
    77   38   40 1    
    78   40   41 1    
    79   40   42 1    
    80   40  102 1    
    81   41  103 1    
    82   41  104 1    
    83   41  105 1    
    84   42   43 am   BACKBONE|DICT|INTERRES
    85   42  106 1    
    86   43   44 2    
    87   43   45 1    
    88   45   46 1    
    89   45   49 1    
    90   45  107 1    
    91   46   47 1    
    92   46  108 1    
    93   46  109 1    
    94   47   48 1    
    95   48  110 1    
    96   48  111 1    
    97   49   50 am   BACKBONE|DICT|INTERRES
    98   49  112 1    
    99   50   51 2    
   100   50   52 1    
   101   52   53 1    
   102   52   54 1    
   103   52  113 1    
   104   53  114 1    
   105   53  115 1    
   106   53  116 1    
   107   54   55 am   BACKBONE|DICT|INTERRES
   108   54  117 1    
   109   55   56 2    
   110   55   57 1    
   111   57   58 1    
   112   57   59 1    
   113   57  118 1    
   114   58  119 1    
   115   58  120 1    
   116   58  121 1    
   117   59   60 am   BACKBONE|DICT|INTERRES
   118   59  122 1    
   119   60   61 2    
   120   60   62 1    
   121   62   63 1    
   122   62   64 1    
   123   62  123 1    
   124   63  124 1    
   125   63  125 1    
   126   63  126 1    
   127   64   65 am   BACKBONE|DICT|INTERRES
   128   64  127 1    
   129   65   66 2    
@<TRIPOS>SUBSTRUCTURE
     1 UNK         1 GROUP             0       ****    0 ROOT    
