@<TRIPOS>MOLECULE
3R135
127   129    1
SMALL
USER_CHARGES


@<TRIPOS>ATOM
      1 CA        -84.9568   27.3088  -70.7812 C.3       0 UNK        -0.1998 
      2 C         -84.7786   27.8582  -72.1887 C.2       0 UNK         0.4909 
      3 O         -85.6769   28.5234  -72.7061 O.2       0 UNK        -0.5240 
      4 N         -83.6302   27.5829  -72.8121 N.am      1 UNK        -0.4739 
      5 CA        -83.2702   28.0233  -74.1583 C.3       1 UNK         0.0864 
      6 C6        -82.7624   29.4955  -74.2092 C.3       11 UNK        -0.0881 
      7 S7        -81.4859   29.9192  -72.9651 S.3       11 UNK        -0.2682 
      8 C8        -79.9469   29.7048  -73.9155 C.3       11 UNK         0.0289 
      9 C9        -78.7677   29.4151  -72.9974 C.ar      11 UNK        -0.0687 
     10 C10       -78.6920   28.1907  -72.3257 C.ar      11 UNK        -0.0823 
     11 C11       -77.6175   27.9082  -71.4777 C.ar      11 UNK        -0.0830 
     12 C12       -76.5996   28.8514  -71.3199 C.ar      11 UNK        -0.1021 
     13 C13       -76.6609   30.0768  -71.9885 C.ar      11 UNK        -0.0753 
     14 C14       -77.7495   30.3573  -72.8218 C.ar      11 UNK        -0.0933 
     15 C15       -75.5486   31.0952  -71.8075 C.3       11 UNK         0.0166 
     16 S16       -74.4336   31.0776  -73.2416 S.3       11 UNK        -0.2615 
     17 C17       -72.7750   31.1275  -72.4693 C.3       11 UNK        -0.0865 
     18 CA        -71.9732   29.7922  -72.6004 C.3       10 UNK         0.0862 
     19 C         -72.3550   28.6870  -71.5733 C.2       10 UNK         0.5551 
     20 N         -72.6807   29.0468  -70.3382 N.am      10 UNK        -0.7319 
     21 O         -72.3000   27.4929  -71.8570 O.2       10 UNK        -0.5018 
     22 N         -71.9628   29.2912  -73.9825 N.am      10 UNK        -0.4509 
     23 C         -71.3455   29.8980  -75.0024 C.2       10 UNK         0.4899 
     24 O         -70.5554   30.8340  -74.8614 O.2       10 UNK        -0.4839 
     25 CA        -71.7161   29.4157  -76.4164 C.3       9 UNK         0.0222 
     26 CB        -70.8624   30.0612  -77.5297 C.3       9 UNK        -0.1966 
     27 N         -71.7371   27.9583  -76.5422 N.am      9 UNK        -0.4218 
     28 C         -70.7056   27.1086  -76.4376 C.2       9 UNK         0.5020 
     29 O         -69.5471   27.4573  -76.2044 O.2       9 UNK        -0.5274 
     30 CA        -71.0033   25.6073  -76.6238 C.3       8 UNK         0.0270 
     31 CB        -70.7987   24.8570  -75.2968 C.3       8 UNK        -0.1976 
     32 N         -72.3510   25.3250  -77.1315 N.am      8 UNK        -0.4313 
     33 C         -72.7739   25.5476  -78.3840 C.2       8 UNK         0.5041 
     34 O         -72.0448   25.9533  -79.2896 O.2       8 UNK        -0.5577 
     35 CA        -74.2718   25.3212  -78.6634 C.3       7 UNK         0.0284 
     36 CB        -74.5607   23.8382  -78.9438 C.3       7 UNK        -0.1958 
     37 N         -75.1355   25.7986  -77.5776 N.am      7 UNK        -0.4454 
     38 C         -75.2632   27.0838  -77.2125 C.2       7 UNK         0.5089 
     39 O         -74.6941   28.0170  -77.7772 O.2       7 UNK        -0.5125 
     40 CA        -76.1302   27.3708  -75.9746 C.3       6 UNK         0.0408 
     41 CB        -77.6194   27.4292  -76.3441 C.3       6 UNK        -0.1791 
     42 N         -75.9125   26.3774  -74.9214 N.am      6 UNK        -0.4762 
     43 C         -74.7727   26.2739  -74.2239 C.2       6 UNK         0.5007 
     44 O         -73.8148   27.0308  -74.3860 O.2       6 UNK        -0.5032 
     45 CA        -74.6564   25.0927  -73.2367 C.3       5 UNK         0.0783 
     46 C46       -75.2584   25.4227  -71.8463 C.3       11 UNK        -0.0857 
     47 S47       -77.0732   25.2054  -71.7560 S.3       11 UNK        -0.2512 
     48 C48       -77.5796   26.5986  -70.7068 C.3       11 UNK         0.0225 
     49 N         -75.2016   23.8445  -73.7837 N.am      5 UNK        -0.4615 
     50 C         -74.7247   23.1864  -74.8456 C.2       4 UNK         0.5053 
     51 O         -73.7163   23.5264  -75.4583 O.2       4 UNK        -0.5105 
     52 CA        -75.5318   21.9710  -75.3388 C.3       4 UNK         0.0263 
     53 CB        -75.0801   20.6970  -74.6080 C.3       4 UNK        -0.1981 
     54 N         -76.9876   22.1208  -75.2119 N.am      4 UNK        -0.4224 
     55 C         -77.7084   23.1132  -75.7526 C.2       3 UNK         0.4895 
     56 O         -77.2134   24.0307  -76.4164 O.2       3 UNK        -0.5091 
     57 CA        -79.2230   23.0978  -75.4885 C.3       3 UNK         0.0250 
     58 CB        -79.5359   23.0907  -73.9760 C.3       3 UNK        -0.1996 
     59 N         -79.7856   24.2906  -76.1128 N.am      3 UNK        -0.4254 
     60 C         -81.0745   24.6086  -76.2601 C.2       2 UNK         0.5004 
     61 O         -82.0167   23.8664  -75.9725 O.2       2 UNK        -0.5226 
     62 CA        -81.3505   26.0098  -76.8380 C.3       2 UNK         0.0269 
     63 CB        -81.8550   25.9069  -78.2868 C.3       2 UNK        -0.1926 
     64 N         -82.2987   26.8079  -76.0503 N.am      2 UNK        -0.4687 
     65 C         -82.2421   27.0332  -74.7281 C.2       1 UNK         0.5165 
     66 O         -81.4050   26.5351  -73.9708 O.2       1 UNK        -0.5079 
     67 H67       -84.0902   26.7333  -70.4563 H         1 UNK         0.0900 
     68 H68       -85.8307   26.6595  -70.7391 H         1 UNK         0.0900 
     69 H69       -85.1043   28.1262  -70.0760 H         1 UNK         0.0900 
     70 H70       -82.9182   27.0152  -72.3691 H         1 UNK         0.2959 
     71 H71       -84.1636   27.9482  -74.7830 H         1 UNK         0.1079 
     72 H72       -82.4019   29.7510  -75.2076 H         1 UNK         0.0837 
     73 H73       -83.6081   30.1620  -74.0336 H         1 UNK         0.0837 
     74 H74       -79.7686   30.6003  -74.5124 H         1 UNK         0.0685 
     75 H75       -80.0516   28.8822  -74.6217 H         1 UNK         0.0685 
     76 H76       -79.4799   27.4608  -72.4542 H         1 UNK         0.1434 
     77 H77       -75.7617   28.6366  -70.6707 H         1 UNK         0.1329 
     78 H78       -77.7953   31.3057  -73.3394 H         1 UNK         0.1335 
     79 H79       -75.9710   32.0945  -71.6927 H         1 UNK         0.0680 
     80 H80       -74.9988   30.8867  -70.8892 H         1 UNK         0.0680 
     81 H81       -72.2207   31.9191  -72.9752 H         1 UNK         0.1032 
     82 H82       -72.8380   31.4681  -71.4358 H         1 UNK         0.1032 
     83 H83       -70.9348   30.0170  -72.3503 H         1 UNK         0.0461 
     84 H84       -72.8922   28.3271  -69.6656 H         1 UNK         0.3453 
     85 H85       -72.6814   30.0119  -70.0523 H         1 UNK         0.3453 
     86 H86       -72.5698   28.4908  -74.1520 H         1 UNK         0.2984 
     87 H87       -72.7464   29.7374  -76.5754 H         1 UNK         0.0554 
     88 H88       -71.1725   29.7170  -78.5164 H         1 UNK         0.0847 
     89 H89       -69.8020   29.8361  -77.4127 H         1 UNK         0.0847 
     90 H90       -70.9653   31.1470  -77.5193 H         1 UNK         0.0847 
     91 H91       -72.6520   27.5578  -76.7057 H         1 UNK         0.3141 
     92 H92       -70.2823   25.2228  -77.3480 H         1 UNK         0.0743 
     93 H93       -69.7889   25.0064  -74.9121 H         1 UNK         0.0784 
     94 H94       -71.4937   25.2029  -74.5306 H         1 UNK         0.0784 
     95 H95       -70.9410   23.7834  -75.4208 H         1 UNK         0.0784 
     96 H96       -72.9950   24.8887  -76.4735 H         1 UNK         0.3213 
     97 H97       -74.5290   25.8904  -79.5594 H         1 UNK         0.0855 
     98 H98       -74.2878   23.2059  -78.0997 H         1 UNK         0.0814 
     99 H99       -73.9921   23.4892  -79.8067 H         1 UNK         0.0814 
    100 H100      -75.6161   23.6717  -79.1607 H         1 UNK         0.0814 
    101 H101      -75.6787   25.1027  -77.0742 H         1 UNK         0.3105 
    102 H102      -75.8448   28.3470  -75.5752 H         1 UNK         0.0547 
    103 H103      -77.9354   26.5412  -76.8895 H         1 UNK         0.0837 
    104 H104      -78.2453   27.5259  -75.4574 H         1 UNK         0.0837 
    105 H105      -77.8229   28.2890  -76.9835 H         1 UNK         0.0837 
    106 H106      -76.6353   25.6871  -74.7756 H         1 UNK         0.3020 
    107 H107      -73.5845   24.9364  -73.0930 H         1 UNK         0.1245 
    108 H108      -74.9785   26.4302  -71.5334 H         1 UNK         0.0781 
    109 H109      -74.8191   24.7579  -71.1012 H         1 UNK         0.0781 
    110 H110      -76.9156   26.6695  -69.8438 H         1 UNK         0.0836 
    111 H111      -78.5730   26.3904  -70.3066 H         1 UNK         0.0836 
    112 H112      -76.0435   23.5072  -73.3399 H         1 UNK         0.3022 
    113 H113      -75.3132   21.8464  -76.4008 H         1 UNK         0.0747 
    114 H114      -75.5613   19.8100  -75.0206 H         1 UNK         0.0793 
    115 H115      -74.0030   20.5527  -74.7057 H         1 UNK         0.0793 
    116 H116      -75.3079   20.7391  -73.5421 H         1 UNK         0.0793 
    117 H117      -77.4680   21.4055  -74.6851 H         1 UNK         0.3047 
    118 H118      -79.6470   22.2118  -75.9646 H         1 UNK         0.0822 
    119 H119      -79.0926   22.2331  -73.4697 H         1 UNK         0.0807 
    120 H120      -80.6089   23.0408  -73.7911 H         1 UNK         0.0807 
    121 H121      -79.1641   23.9920  -73.4884 H         1 UNK         0.0807 
    122 H122      -79.0672   24.9179  -76.4520 H         1 UNK         0.2946 
    123 H123      -80.4144   26.5703  -76.8479 H         1 UNK         0.1144 
    124 H124      -81.1578   25.3389  -78.9044 H         1 UNK         0.0793 
    125 H125      -81.9612   26.8909  -78.7439 H         1 UNK         0.0793 
    126 H126      -82.8215   25.4039  -78.3407 H         1 UNK         0.0793 
    127 H127      -83.0372   27.2507  -76.5779 H         1 UNK         0.2896 
@<TRIPOS>BOND
     1    1    2 1    
     2    1   67 1    
     3    1   68 1    
     4    1   69 1    
     5    2    3 2    
     6    2    4 am   BACKBONE|DICT|INTERRES
     7    4    5 1    
     8    4   70 1    
     9    5    6 1    
    10    5   65 1    
    11    5   71 1    
    12    6    7 1    
    13    6   72 1    
    14    6   73 1    
    15    7    8 1    
    16    8    9 1    
    17    8   74 1    
    18    8   75 1    
    19    9   10 ar   
    20    9   14 ar   
    21   10   11 ar   
    22   10   76 1    
    23   11   12 ar   
    24   11   48 1    
    25   12   13 ar   
    26   12   77 1    
    27   13   14 ar   
    28   13   15 1    
    29   14   78 1    
    30   15   16 1    
    31   15   79 1    
    32   15   80 1    
    33   16   17 1    
    34   17   18 1    
    35   17   81 1    
    36   17   82 1    
    37   18   19 1    
    38   18   22 1    
    39   18   83 1    
    40   19   20 am   BACKBONE|DICT|INTERRES
    41   19   21 2    
    42   20   84 1    
    43   20   85 1    
    44   22   23 am   BACKBONE|DICT|INTERRES
    45   22   86 1    
    46   23   24 2    
    47   23   25 1    
    48   25   26 1    
    49   25   27 1    
    50   25   87 1    
    51   26   88 1    
    52   26   89 1    
    53   26   90 1    
    54   27   28 am   BACKBONE|DICT|INTERRES
    55   27   91 1    
    56   28   29 2    
    57   28   30 1    
    58   30   31 1    
    59   30   32 1    
    60   30   92 1    
    61   31   93 1    
    62   31   94 1    
    63   31   95 1    
    64   32   33 am   BACKBONE|DICT|INTERRES
    65   32   96 1    
    66   33   34 2    
    67   33   35 1    
    68   35   36 1    
    69   35   37 1    
    70   35   97 1    
    71   36   98 1    
    72   36   99 1    
    73   36  100 1    
    74   37   38 am   BACKBONE|DICT|INTERRES
    75   37  101 1    
    76   38   39 2    
    77   38   40 1    
    78   40   41 1    
    79   40   42 1    
    80   40  102 1    
    81   41  103 1    
    82   41  104 1    
    83   41  105 1    
    84   42   43 am   BACKBONE|DICT|INTERRES
    85   42  106 1    
    86   43   44 2    
    87   43   45 1    
    88   45   46 1    
    89   45   49 1    
    90   45  107 1    
    91   46   47 1    
    92   46  108 1    
    93   46  109 1    
    94   47   48 1    
    95   48  110 1    
    96   48  111 1    
    97   49   50 am   BACKBONE|DICT|INTERRES
    98   49  112 1    
    99   50   51 2    
   100   50   52 1    
   101   52   53 1    
   102   52   54 1    
   103   52  113 1    
   104   53  114 1    
   105   53  115 1    
   106   53  116 1    
   107   54   55 am   BACKBONE|DICT|INTERRES
   108   54  117 1    
   109   55   56 2    
   110   55   57 1    
   111   57   58 1    
   112   57   59 1    
   113   57  118 1    
   114   58  119 1    
   115   58  120 1    
   116   58  121 1    
   117   59   60 am   BACKBONE|DICT|INTERRES
   118   59  122 1    
   119   60   61 2    
   120   60   62 1    
   121   62   63 1    
   122   62   64 1    
   123   62  123 1    
   124   63  124 1    
   125   63  125 1    
   126   63  126 1    
   127   64   65 am   BACKBONE|DICT|INTERRES
   128   64  127 1    
   129   65   66 2    
@<TRIPOS>SUBSTRUCTURE
     1 UNK         1 GROUP             0       ****    0 ROOT    
