@<TRIPOS>MOLECULE
3R135
127   129    1
SMALL
USER_CHARGES


@<TRIPOS>ATOM
      1 CA        -77.8926   22.2607  -68.9167 C.3       0 UNK        -0.1998 
      2 C         -78.9619   23.1897  -69.4711 C.2       0 UNK         0.4909 
      3 O         -80.0457   23.2892  -68.8953 O.2       0 UNK        -0.5240 
      4 N         -78.6667   23.8698  -70.5870 N.am      1 UNK        -0.4739 
      5 CA        -79.5695   24.8206  -71.2529 C.3       1 UNK         0.0864 
      6 C6        -78.8081   25.7537  -72.2281 C.3       11 UNK        -0.0881 
      7 S7        -77.5595   26.7636  -71.3661 S.3       11 UNK        -0.2682 
      8 C8        -78.4425   28.3435  -71.1796 C.3       11 UNK         0.0289 
      9 C9        -78.3400   29.2001  -72.4329 C.ar      11 UNK        -0.0687 
     10 C10       -79.3867   29.2456  -73.3597 C.ar      11 UNK        -0.0823 
     11 C11       -79.2921   30.0534  -74.4982 C.ar      11 UNK        -0.0830 
     12 C12       -78.1457   30.8285  -74.7001 C.ar      11 UNK        -0.1021 
     13 C13       -77.0973   30.7929  -73.7766 C.ar      11 UNK        -0.0753 
     14 C14       -77.1967   29.9734  -72.6499 C.ar      11 UNK        -0.0933 
     15 C15       -75.8615   31.6499  -73.9816 C.3       11 UNK         0.0166 
     16 S16       -74.6038   30.7549  -74.9347 S.3       11 UNK        -0.2615 
     17 C17       -73.2148   31.9405  -74.8474 C.3       11 UNK        -0.0865 
     18 CA        -72.0257   31.4527  -73.9779 C.3       10 UNK         0.0862 
     19 C         -72.3685   31.4271  -72.4603 C.2       10 UNK         0.5551 
     20 N         -72.3968   32.5878  -71.8190 N.am      10 UNK        -0.7319 
     21 O         -72.6391   30.3842  -71.8686 O.2       10 UNK        -0.5018 
     22 N         -71.4947   30.1846  -74.4903 N.am      10 UNK        -0.4509 
     23 C         -70.3195   29.6372  -74.1609 C.2       10 UNK         0.4899 
     24 O         -69.4966   30.1660  -73.4113 O.2       10 UNK        -0.4839 
     25 CA        -70.0163   28.2804  -74.8200 C.3       9 UNK         0.0222 
     26 CB        -68.7577   27.5836  -74.2581 C.3       9 UNK        -0.1966 
     27 N         -71.1879   27.3959  -74.8177 N.am      9 UNK        -0.4218 
     28 C         -71.7597   26.7858  -73.7657 C.2       9 UNK         0.5020 
     29 O         -71.3188   26.8495  -72.6173 O.2       9 UNK        -0.5274 
     30 CA        -73.0460   25.9631  -74.0111 C.3       8 UNK         0.0270 
     31 CB        -74.2309   26.5848  -73.2495 C.3       8 UNK        -0.1976 
     32 N         -73.4278   25.8124  -75.4189 N.am      8 UNK        -0.4313 
     33 C         -72.7387   25.1576  -76.3635 C.2       8 UNK         0.5041 
     34 O         -71.7322   24.4866  -76.1342 O.2       8 UNK        -0.5577 
     35 CA        -73.2106   25.3336  -77.8200 C.3       7 UNK         0.0284 
     36 CB        -74.1369   24.1804  -78.2367 C.3       7 UNK        -0.1958 
     37 N         -73.8788   26.6152  -78.0826 N.am      7 UNK        -0.4454 
     38 C         -73.3509   27.8360  -77.9118 C.2       7 UNK         0.5089 
     39 O         -72.2036   28.0293  -77.5088 O.2       7 UNK        -0.5125 
     40 CA        -74.2643   29.0496  -78.1737 C.3       6 UNK         0.0408 
     41 CB        -74.3004   29.4199  -79.6691 C.3       6 UNK        -0.1791 
     42 N         -75.6101   28.9077  -77.5921 N.am      6 UNK        -0.4762 
     43 C         -76.5887   28.0743  -77.9717 C.2       6 UNK         0.5007 
     44 O         -76.5273   27.3644  -78.9790 O.2       6 UNK        -0.5032 
     45 CA        -77.8103   27.9526  -77.0396 C.3       5 UNK         0.0783 
     46 C46       -79.0026   28.7876  -77.5668 C.3       11 UNK        -0.0857 
     47 S47       -80.4999   28.6060  -76.5351 S.3       11 UNK        -0.2512 
     48 C48       -80.4376   30.1016  -75.4990 C.3       11 UNK         0.0225 
     49 N         -78.1577   26.5397  -76.8753 N.am      5 UNK        -0.4615 
     50 C         -77.3901   25.6219  -76.2799 C.2       4 UNK         0.5053 
     51 O         -76.3102   25.8906  -75.7525 O.2       4 UNK        -0.5105 
     52 CA        -77.9098   24.1698  -76.2836 C.3       4 UNK         0.0263 
     53 CB        -77.1123   23.2541  -75.3345 C.3       4 UNK        -0.1981 
     54 N         -79.3351   24.0748  -75.9520 N.am      4 UNK        -0.4224 
     55 C         -80.3593   24.3083  -76.7857 C.2       3 UNK         0.4895 
     56 O         -80.2035   24.6769  -77.9506 O.2       3 UNK        -0.5091 
     57 CA        -81.7911   24.1578  -76.2285 C.3       3 UNK         0.0250 
     58 CB        -82.7279   23.4364  -77.2204 C.3       3 UNK        -0.1996 
     59 N         -81.8625   23.5526  -74.8902 N.am      3 UNK        -0.4254 
     60 C         -81.5430   22.3027  -74.5231 C.2       2 UNK         0.5004 
     61 O         -81.1601   21.4306  -75.3039 O.2       2 UNK        -0.5226 
     62 CA        -81.5938   22.0175  -73.0095 C.3       2 UNK         0.0269 
     63 CB        -81.3511   20.5334  -72.6763 C.3       2 UNK        -0.1926 
     64 N         -80.6109   22.8295  -72.2839 N.am      2 UNK        -0.4687 
     65 C         -80.7415   24.1301  -71.9819 C.2       1 UNK         0.5165 
     66 O         -81.7345   24.7929  -72.2868 O.2       1 UNK        -0.5079 
     67 H67       -77.6265   22.5585  -67.9029 H         1 UNK         0.0900 
     68 H68       -76.9865   22.2740  -69.5223 H         1 UNK         0.0900 
     69 H69       -78.2645   21.2369  -68.8848 H         1 UNK         0.0900 
     70 H70       -77.7492   23.7757  -70.9996 H         1 UNK         0.2959 
     71 H71       -80.0236   25.4445  -70.4793 H         1 UNK         0.1079 
     72 H72       -78.2995   25.1758  -73.0000 H         1 UNK         0.0837 
     73 H73       -79.4967   26.4133  -72.7585 H         1 UNK         0.0837 
     74 H74       -79.4855   28.1591  -70.9173 H         1 UNK         0.0685 
     75 H75       -78.0112   28.8851  -70.3364 H         1 UNK         0.0685 
     76 H76       -80.2777   28.6546  -73.1979 H         1 UNK         0.1434 
     77 H77       -78.0685   31.4626  -75.5728 H         1 UNK         0.1329 
     78 H78       -76.3837   29.9405  -71.9369 H         1 UNK         0.1335 
     79 H79       -76.1237   32.5731  -74.5009 H         1 UNK         0.0680 
     80 H80       -75.4472   31.9431  -73.0155 H         1 UNK         0.0680 
     81 H81       -72.8667   32.1144  -75.8667 H         1 UNK         0.1032 
     82 H82       -73.5702   32.9126  -74.5008 H         1 UNK         0.1032 
     83 H83       -71.2237   32.1841  -74.0977 H         1 UNK         0.0461 
     84 H84       -72.1777   33.4522  -72.2891 H         1 UNK         0.3453 
     85 H85       -72.6271   32.5975  -70.8377 H         1 UNK         0.3453 
     86 H86       -72.1201   29.6609  -75.0844 H         1 UNK         0.2984 
     87 H87       -69.8172   28.4980  -75.8704 H         1 UNK         0.0554 
     88 H88       -68.5847   26.6236  -74.7442 H         1 UNK         0.0847 
     89 H89       -68.8304   27.4093  -73.1844 H         1 UNK         0.0847 
     90 H90       -67.8701   28.1953  -74.4236 H         1 UNK         0.0847 
     91 H91       -71.6410   27.3012  -75.7216 H         1 UNK         0.3141 
     92 H92       -72.8659   24.9643  -73.6091 H         1 UNK         0.0743 
     93 H93       -74.4887   27.5712  -73.6383 H         1 UNK         0.0784 
     94 H94       -75.1196   25.9569  -73.3157 H         1 UNK         0.0784 
     95 H95       -74.0038   26.7034  -72.1892 H         1 UNK         0.0784 
     96 H96       -74.3188   26.2215  -75.6849 H         1 UNK         0.3213 
     97 H97       -72.3198   25.3002  -78.4508 H         1 UNK         0.0855 
     98 H98       -75.0676   24.1863  -77.6707 H         1 UNK         0.0814 
     99 H99       -73.6585   23.2145  -78.0684 H         1 UNK         0.0814 
    100 H100      -74.3884   24.2362  -79.2960 H         1 UNK         0.0814 
    101 H101      -74.8364   26.5779  -78.4199 H         1 UNK         0.3105 
    102 H102      -73.8106   29.8942  -77.6539 H         1 UNK         0.0547 
    103 H103      -73.2997   29.6617  -80.0291 H         1 UNK         0.0837 
    104 H104      -74.6738   28.6058  -80.2903 H         1 UNK         0.0837 
    105 H105      -74.9277   30.2933  -79.8463 H         1 UNK         0.0837 
    106 H106      -75.7393   29.4293  -76.7334 H         1 UNK         0.3020 
    107 H107      -77.5307   28.3281  -76.0526 H         1 UNK         0.1245 
    108 H108      -79.2631   28.4792  -78.5813 H         1 UNK         0.0781 
    109 H109      -78.7336   29.8434  -77.6323 H         1 UNK         0.0781 
    110 H110      -81.3817   30.1944  -74.9600 H         1 UNK         0.0836 
    111 H111      -80.3660   30.9851  -76.1354 H         1 UNK         0.0836 
    112 H112      -79.0065   26.2265  -77.3313 H         1 UNK         0.3022 
    113 H113      -77.7678   23.7924  -77.2985 H         1 UNK         0.0747 
    114 H114      -77.4717   22.2259  -75.3810 H         1 UNK         0.0793 
    115 H115      -76.0549   23.2358  -75.6016 H         1 UNK         0.0793 
    116 H116      -77.1757   23.5856  -74.2985 H         1 UNK         0.0793 
    117 H117      -79.5584   23.7901  -75.0111 H         1 UNK         0.3047 
    118 H118      -82.1648   25.1762  -76.1104 H         1 UNK         0.0822 
    119 H119      -83.7403   23.3568  -76.8245 H         1 UNK         0.0807 
    120 H120      -82.3775   22.4305  -77.4532 H         1 UNK         0.0807 
    121 H121      -82.7932   23.9806  -78.1634 H         1 UNK         0.0807 
    122 H122      -82.1079   24.1910  -74.1378 H         1 UNK         0.2946 
    123 H123      -82.5970   22.2775  -72.6626 H         1 UNK         0.1144 
    124 H124      -80.3572   20.2054  -72.9836 H         1 UNK         0.0793 
    125 H125      -82.0766   19.8958  -73.1835 H         1 UNK         0.0793 
    126 H126      -81.4501   20.3463  -71.6068 H         1 UNK         0.0793 
    127 H127      -79.7580   22.3656  -72.0057 H         1 UNK         0.2896 
@<TRIPOS>BOND
     1    1    2 1    
     2    1   67 1    
     3    1   68 1    
     4    1   69 1    
     5    2    3 2    
     6    2    4 am   BACKBONE|DICT|INTERRES
     7    4    5 1    
     8    4   70 1    
     9    5    6 1    
    10    5   65 1    
    11    5   71 1    
    12    6    7 1    
    13    6   72 1    
    14    6   73 1    
    15    7    8 1    
    16    8    9 1    
    17    8   74 1    
    18    8   75 1    
    19    9   10 ar   
    20    9   14 ar   
    21   10   11 ar   
    22   10   76 1    
    23   11   12 ar   
    24   11   48 1    
    25   12   13 ar   
    26   12   77 1    
    27   13   14 ar   
    28   13   15 1    
    29   14   78 1    
    30   15   16 1    
    31   15   79 1    
    32   15   80 1    
    33   16   17 1    
    34   17   18 1    
    35   17   81 1    
    36   17   82 1    
    37   18   19 1    
    38   18   22 1    
    39   18   83 1    
    40   19   20 am   BACKBONE|DICT|INTERRES
    41   19   21 2    
    42   20   84 1    
    43   20   85 1    
    44   22   23 am   BACKBONE|DICT|INTERRES
    45   22   86 1    
    46   23   24 2    
    47   23   25 1    
    48   25   26 1    
    49   25   27 1    
    50   25   87 1    
    51   26   88 1    
    52   26   89 1    
    53   26   90 1    
    54   27   28 am   BACKBONE|DICT|INTERRES
    55   27   91 1    
    56   28   29 2    
    57   28   30 1    
    58   30   31 1    
    59   30   32 1    
    60   30   92 1    
    61   31   93 1    
    62   31   94 1    
    63   31   95 1    
    64   32   33 am   BACKBONE|DICT|INTERRES
    65   32   96 1    
    66   33   34 2    
    67   33   35 1    
    68   35   36 1    
    69   35   37 1    
    70   35   97 1    
    71   36   98 1    
    72   36   99 1    
    73   36  100 1    
    74   37   38 am   BACKBONE|DICT|INTERRES
    75   37  101 1    
    76   38   39 2    
    77   38   40 1    
    78   40   41 1    
    79   40   42 1    
    80   40  102 1    
    81   41  103 1    
    82   41  104 1    
    83   41  105 1    
    84   42   43 am   BACKBONE|DICT|INTERRES
    85   42  106 1    
    86   43   44 2    
    87   43   45 1    
    88   45   46 1    
    89   45   49 1    
    90   45  107 1    
    91   46   47 1    
    92   46  108 1    
    93   46  109 1    
    94   47   48 1    
    95   48  110 1    
    96   48  111 1    
    97   49   50 am   BACKBONE|DICT|INTERRES
    98   49  112 1    
    99   50   51 2    
   100   50   52 1    
   101   52   53 1    
   102   52   54 1    
   103   52  113 1    
   104   53  114 1    
   105   53  115 1    
   106   53  116 1    
   107   54   55 am   BACKBONE|DICT|INTERRES
   108   54  117 1    
   109   55   56 2    
   110   55   57 1    
   111   57   58 1    
   112   57   59 1    
   113   57  118 1    
   114   58  119 1    
   115   58  120 1    
   116   58  121 1    
   117   59   60 am   BACKBONE|DICT|INTERRES
   118   59  122 1    
   119   60   61 2    
   120   60   62 1    
   121   62   63 1    
   122   62   64 1    
   123   62  123 1    
   124   63  124 1    
   125   63  125 1    
   126   63  126 1    
   127   64   65 am   BACKBONE|DICT|INTERRES
   128   64  127 1    
   129   65   66 2    
@<TRIPOS>SUBSTRUCTURE
     1 UNK         1 GROUP             0       ****    0 ROOT    
