@<TRIPOS>MOLECULE
3R135
127   129    1
SMALL
USER_CHARGES


@<TRIPOS>ATOM
      1 CA        -81.9153   23.9251  -72.3394 C.3       0 UNK        -0.1998 
      2 C         -82.0458   25.1910  -73.1722 C.2       0 UNK         0.4909 
      3 O         -82.8480   25.2332  -74.1069 O.2       0 UNK        -0.5240 
      4 N         -81.2725   26.2286  -72.8293 N.am      1 UNK        -0.4739 
      5 CA        -81.2787   27.5493  -73.4677 C.3       1 UNK         0.0864 
      6 C6        -80.5267   28.6065  -72.6174 C.3       11 UNK        -0.0881 
      7 S7        -81.1828   28.7185  -70.9117 S.3       11 UNK        -0.2682 
      8 C8        -79.8558   29.5941  -70.0089 C.3       11 UNK         0.0289 
      9 C9        -78.4743   28.9874  -70.2265 C.ar      11 UNK        -0.0687 
     10 C10       -78.2524   27.6224  -70.0182 C.ar      11 UNK        -0.0823 
     11 C11       -77.0175   27.0484  -70.3344 C.ar      11 UNK        -0.0830 
     12 C12       -75.9762   27.8616  -70.7948 C.ar      11 UNK        -0.1021 
     13 C13       -76.1782   29.2321  -70.9780 C.ar      11 UNK        -0.0753 
     14 C14       -77.4284   29.7884  -70.6939 C.ar      11 UNK        -0.0933 
     15 C15       -75.0659   30.1091  -71.5281 C.3       11 UNK         0.0166 
     16 S16       -75.0954   30.1082  -73.3476 S.3       11 UNK        -0.2615 
     17 C17       -74.4941   31.7915  -73.7372 C.3       11 UNK        -0.0865 
     18 CA        -72.9836   31.8689  -74.0841 C.3       10 UNK         0.0862 
     19 C         -72.0744   31.7898  -72.8205 C.2       10 UNK         0.5551 
     20 N         -71.0784   30.9141  -72.7547 N.am      10 UNK        -0.7319 
     21 O         -72.2708   32.5546  -71.8792 O.2       10 UNK        -0.5018 
     22 N         -72.6383   30.9287  -75.1583 N.am      10 UNK        -0.4509 
     23 C         -71.6369   31.0767  -76.0326 C.2       10 UNK         0.4899 
     24 O         -70.9380   32.0888  -76.1117 O.2       10 UNK        -0.4839 
     25 CA        -71.3718   29.8710  -76.9576 C.3       9 UNK         0.0222 
     26 CB        -69.9968   29.9405  -77.6547 C.3       9 UNK        -0.1966 
     27 N         -71.5426   28.5788  -76.2769 N.am      9 UNK        -0.4218 
     28 C         -70.8939   28.1522  -75.1781 C.2       9 UNK         0.5020 
     29 O         -70.0468   28.8218  -74.5855 O.2       9 UNK        -0.5274 
     30 CA        -71.2669   26.7722  -74.6032 C.3       8 UNK         0.0270 
     31 CB        -71.9810   26.9392  -73.2504 C.3       8 UNK        -0.1976 
     32 N         -72.1067   25.9761  -75.5022 N.am      8 UNK        -0.4313 
     33 C         -71.6598   25.3633  -76.6102 C.2       8 UNK         0.5041 
     34 O         -70.4704   25.3222  -76.9273 O.2       8 UNK        -0.5577 
     35 CA        -72.6981   24.7114  -77.5452 C.3       7 UNK         0.0284 
     36 CB        -72.6643   23.1819  -77.4002 C.3       7 UNK        -0.1958 
     37 N         -74.0693   25.1913  -77.3435 N.am      7 UNK        -0.4454 
     38 C         -74.4802   26.4520  -77.5581 C.2       7 UNK         0.5089 
     39 O         -73.7469   27.3382  -77.9986 O.2       7 UNK        -0.5125 
     40 CA        -75.9234   26.8106  -77.1504 C.3       6 UNK         0.0408 
     41 CB        -76.8554   26.7641  -78.3701 C.3       6 UNK        -0.1791 
     42 N         -76.4796   25.9693  -76.0856 N.am      6 UNK        -0.4762 
     43 C         -75.9364   25.7911  -74.8716 C.2       6 UNK         0.5007 
     44 O         -74.8940   26.3352  -74.5084 O.2       6 UNK        -0.5032 
     45 CA        -76.6272   24.7910  -73.9235 C.3       5 UNK         0.0783 
     46 C46       -77.6357   25.5275  -73.0141 C.3       11 UNK        -0.0857 
     47 S47       -77.9381   24.6564  -71.4387 S.3       11 UNK        -0.2512 
     48 C48       -76.8371   25.5372  -70.2723 C.3       11 UNK         0.0225 
     49 N         -77.2743   23.6746  -74.6211 N.am      5 UNK        -0.4615 
     50 C         -76.7244   22.8301  -75.4998 C.2       4 UNK         0.5053 
     51 O         -75.5506   22.8923  -75.8633 O.2       4 UNK        -0.5105 
     52 CA        -77.6439   21.7513  -76.1021 C.3       4 UNK         0.0263 
     53 CB        -77.8795   20.6059  -75.0979 C.3       4 UNK        -0.1981 
     54 N         -78.9151   22.2535  -76.6532 N.am      4 UNK        -0.4224 
     55 C         -79.9381   22.8358  -76.0105 C.2       3 UNK         0.4895 
     56 O         -79.9522   23.0739  -74.8020 O.2       3 UNK        -0.5091 
     57 CA        -81.1595   23.2130  -76.8565 C.3       3 UNK         0.0250 
     58 CB        -82.4054   22.4396  -76.3941 C.3       3 UNK        -0.1996 
     59 N         -81.4137   24.6482  -76.7476 N.am      3 UNK        -0.4254 
     60 C         -80.8370   25.5744  -77.5266 C.2       2 UNK         0.5004 
     61 O         -80.0375   25.3058  -78.4237 O.2       2 UNK        -0.5226 
     62 CA        -81.2176   27.0455  -77.2820 C.3       2 UNK         0.0269 
     63 CB        -82.3757   27.4607  -78.2037 C.3       2 UNK        -0.1926 
     64 N         -81.5910   27.3061  -75.8905 N.am      2 UNK        -0.4687 
     65 C         -80.7055   27.4514  -74.8971 C.2       1 UNK         0.5165 
     66 O         -79.4866   27.4730  -75.0751 O.2       1 UNK        -0.5079 
     67 H67       -81.9149   23.0462  -72.9827 H         1 UNK         0.0900 
     68 H68       -80.9912   23.9160  -71.7619 H         1 UNK         0.0900 
     69 H69       -82.7544   23.8415  -71.6497 H         1 UNK         0.0900 
     70 H70       -80.6266   26.1299  -72.0593 H         1 UNK         0.2959 
     71 H71       -82.3189   27.8743  -73.5432 H         1 UNK         0.1079 
     72 H72       -80.6003   29.5929  -73.0789 H         1 UNK         0.0837 
     73 H73       -79.4634   28.3646  -72.5835 H         1 UNK         0.0837 
     74 H74       -80.0852   29.5799  -68.9428 H         1 UNK         0.0685 
     75 H75       -79.8691   30.6419  -70.3130 H         1 UNK         0.0685 
     76 H76       -79.0638   26.9930  -69.6792 H         1 UNK         0.1434 
     77 H77       -75.0220   27.4247  -71.0571 H         1 UNK         0.1329 
     78 H78       -77.5931   30.8432  -70.8669 H         1 UNK         0.1335 
     79 H79       -74.0932   29.7544  -71.1840 H         1 UNK         0.0680 
     80 H80       -75.1768   31.1236  -71.1428 H         1 UNK         0.0680 
     81 H81       -74.7506   32.4855  -72.9350 H         1 UNK         0.1032 
     82 H82       -75.0671   32.1404  -74.5976 H         1 UNK         0.1032 
     83 H83       -72.8155   32.8740  -74.4764 H         1 UNK         0.0461 
     84 H84       -70.5042   30.8927  -71.9276 H         1 UNK         0.3453 
     85 H85       -70.8669   30.2892  -73.5250 H         1 UNK         0.3453 
     86 H86       -73.1527   30.0592  -75.1500 H         1 UNK         0.2984 
     87 H87       -72.1376   29.9085  -77.7335 H         1 UNK         0.0554 
     88 H88       -69.9120   30.8401  -78.2656 H         1 UNK         0.0847 
     89 H89       -69.8438   29.0867  -78.3147 H         1 UNK         0.0847 
     90 H90       -69.1782   29.9586  -76.9344 H         1 UNK         0.0847 
     91 H91       -72.2362   27.9656  -76.6929 H         1 UNK         0.3141 
     92 H92       -70.3364   26.2276  -74.4305 H         1 UNK         0.0743 
     93 H93       -71.3268   27.4200  -72.5220 H         1 UNK         0.0784 
     94 H94       -72.8740   27.5596  -73.3370 H         1 UNK         0.0784 
     95 H95       -72.2790   25.9775  -72.8329 H         1 UNK         0.0784 
     96 H96       -73.1029   25.9723  -75.2980 H         1 UNK         0.3213 
     97 H97       -72.4111   24.9627  -78.5685 H         1 UNK         0.0855 
     98 H98       -72.9066   22.8685  -76.3841 H         1 UNK         0.0814 
     99 H99       -71.6731   22.7904  -77.6324 H         1 UNK         0.0814 
    100 H100      -73.3697   22.7002  -78.0774 H         1 UNK         0.0814 
    101 H101      -74.7220   24.5296  -76.9360 H         1 UNK         0.3105 
    102 H102      -75.9058   27.8354  -76.7739 H         1 UNK         0.0547 
    103 H103      -76.9630   25.7510  -78.7597 H         1 UNK         0.0837 
    104 H104      -77.8498   27.1349  -78.1216 H         1 UNK         0.0837 
    105 H105      -76.4730   27.3873  -79.1797 H         1 UNK         0.0837 
    106 H106      -77.3426   25.4871  -76.2913 H         1 UNK         0.3020 
    107 H107      -75.8332   24.3683  -73.3044 H         1 UNK         0.1245 
    108 H108      -78.5938   25.6172  -73.5247 H         1 UNK         0.0781 
    109 H109      -77.3291   26.5551  -72.8213 H         1 UNK         0.0781 
    110 H110      -75.8042   25.2613  -70.4899 H         1 UNK         0.0836 
    111 H111      -77.0405   25.1906  -69.2584 H         1 UNK         0.0836 
    112 H112      -78.2638   23.5355  -74.4214 H         1 UNK         0.3022 
    113 H113      -77.1048   21.3287  -76.9517 H         1 UNK         0.0747 
    114 H114      -78.4536   19.7965  -75.5486 H         1 UNK         0.0793 
    115 H115      -76.9318   20.1828  -74.7621 H         1 UNK         0.0793 
    116 H116      -78.4157   20.9417  -74.2098 H         1 UNK         0.0793 
    117 H117      -79.0044   22.1469  -77.6547 H         1 UNK         0.3047 
    118 H118      -80.9733   22.9534  -77.9011 H         1 UNK         0.0822 
    119 H119      -83.2708   22.6780  -77.0126 H         1 UNK         0.0807 
    120 H120      -82.6635   22.6665  -75.3591 H         1 UNK         0.0807 
    121 H121      -82.2441   21.3629  -76.4617 H         1 UNK         0.0807 
    122 H122      -81.9991   24.9461  -75.9737 H         1 UNK         0.2946 
    123 H123      -80.3466   27.6552  -77.5348 H         1 UNK         0.1144 
    124 H124      -82.6127   28.5188  -78.0908 H         1 UNK         0.0793 
    125 H125      -83.2817   26.8888  -77.9987 H         1 UNK         0.0793 
    126 H126      -82.1172   27.2981  -79.2512 H         1 UNK         0.0793 
    127 H127      -82.5734   27.2422  -75.6599 H         1 UNK         0.2896 
@<TRIPOS>BOND
     1    1    2 1    
     2    1   67 1    
     3    1   68 1    
     4    1   69 1    
     5    2    3 2    
     6    2    4 am   BACKBONE|DICT|INTERRES
     7    4    5 1    
     8    4   70 1    
     9    5    6 1    
    10    5   65 1    
    11    5   71 1    
    12    6    7 1    
    13    6   72 1    
    14    6   73 1    
    15    7    8 1    
    16    8    9 1    
    17    8   74 1    
    18    8   75 1    
    19    9   10 ar   
    20    9   14 ar   
    21   10   11 ar   
    22   10   76 1    
    23   11   12 ar   
    24   11   48 1    
    25   12   13 ar   
    26   12   77 1    
    27   13   14 ar   
    28   13   15 1    
    29   14   78 1    
    30   15   16 1    
    31   15   79 1    
    32   15   80 1    
    33   16   17 1    
    34   17   18 1    
    35   17   81 1    
    36   17   82 1    
    37   18   19 1    
    38   18   22 1    
    39   18   83 1    
    40   19   20 am   BACKBONE|DICT|INTERRES
    41   19   21 2    
    42   20   84 1    
    43   20   85 1    
    44   22   23 am   BACKBONE|DICT|INTERRES
    45   22   86 1    
    46   23   24 2    
    47   23   25 1    
    48   25   26 1    
    49   25   27 1    
    50   25   87 1    
    51   26   88 1    
    52   26   89 1    
    53   26   90 1    
    54   27   28 am   BACKBONE|DICT|INTERRES
    55   27   91 1    
    56   28   29 2    
    57   28   30 1    
    58   30   31 1    
    59   30   32 1    
    60   30   92 1    
    61   31   93 1    
    62   31   94 1    
    63   31   95 1    
    64   32   33 am   BACKBONE|DICT|INTERRES
    65   32   96 1    
    66   33   34 2    
    67   33   35 1    
    68   35   36 1    
    69   35   37 1    
    70   35   97 1    
    71   36   98 1    
    72   36   99 1    
    73   36  100 1    
    74   37   38 am   BACKBONE|DICT|INTERRES
    75   37  101 1    
    76   38   39 2    
    77   38   40 1    
    78   40   41 1    
    79   40   42 1    
    80   40  102 1    
    81   41  103 1    
    82   41  104 1    
    83   41  105 1    
    84   42   43 am   BACKBONE|DICT|INTERRES
    85   42  106 1    
    86   43   44 2    
    87   43   45 1    
    88   45   46 1    
    89   45   49 1    
    90   45  107 1    
    91   46   47 1    
    92   46  108 1    
    93   46  109 1    
    94   47   48 1    
    95   48  110 1    
    96   48  111 1    
    97   49   50 am   BACKBONE|DICT|INTERRES
    98   49  112 1    
    99   50   51 2    
   100   50   52 1    
   101   52   53 1    
   102   52   54 1    
   103   52  113 1    
   104   53  114 1    
   105   53  115 1    
   106   53  116 1    
   107   54   55 am   BACKBONE|DICT|INTERRES
   108   54  117 1    
   109   55   56 2    
   110   55   57 1    
   111   57   58 1    
   112   57   59 1    
   113   57  118 1    
   114   58  119 1    
   115   58  120 1    
   116   58  121 1    
   117   59   60 am   BACKBONE|DICT|INTERRES
   118   59  122 1    
   119   60   61 2    
   120   60   62 1    
   121   62   63 1    
   122   62   64 1    
   123   62  123 1    
   124   63  124 1    
   125   63  125 1    
   126   63  126 1    
   127   64   65 am   BACKBONE|DICT|INTERRES
   128   64  127 1    
   129   65   66 2    
@<TRIPOS>SUBSTRUCTURE
     1 UNK         1 GROUP             0       ****    0 ROOT    
