@<TRIPOS>MOLECULE
3R135
127   129    1
SMALL
USER_CHARGES


@<TRIPOS>ATOM
      1 CA        -82.8604   27.2534  -70.3653 C.3       0 UNK        -0.1998 
      2 C         -83.3805   27.5956  -71.7534 C.2       0 UNK         0.4909 
      3 O         -84.5675   27.4160  -72.0263 O.2       0 UNK        -0.5240 
      4 N         -82.4985   28.0848  -72.6342 N.am      1 UNK        -0.4739 
      5 CA        -82.8044   28.4384  -74.0273 C.3       1 UNK         0.0864 
      6 C6        -81.8235   29.5109  -74.5713 C.3       11 UNK        -0.0881 
      7 S7        -80.0753   28.9831  -74.5657 S.3       11 UNK        -0.2682 
      8 C8        -79.4278   29.8277  -73.0906 C.3       11 UNK         0.0289 
      9 C9        -78.1975   29.1010  -72.5746 C.ar      11 UNK        -0.0687 
     10 C10       -78.3437   28.0137  -71.7083 C.ar      11 UNK        -0.0823 
     11 C11       -77.2262   27.2992  -71.2698 C.ar      11 UNK        -0.0830 
     12 C12       -75.9532   27.6878  -71.6931 C.ar      11 UNK        -0.1021 
     13 C13       -75.7955   28.7683  -72.5657 C.ar      11 UNK        -0.0753 
     14 C14       -76.9195   29.4811  -72.9946 C.ar      11 UNK        -0.0933 
     15 C15       -74.4187   29.0971  -73.1149 C.3       11 UNK         0.0166 
     16 S16       -73.3368   29.8644  -71.8679 S.3       11 UNK        -0.2615 
     17 C17       -73.2794   31.5974  -72.4490 C.3       11 UNK        -0.0865 
     18 CA        -72.1009   31.8854  -73.4205 C.3       10 UNK         0.0862 
     19 C         -70.7215   31.9255  -72.6956 C.2       10 UNK         0.5551 
     20 N         -69.7472   31.0962  -73.0546 N.am      10 UNK        -0.7319 
     21 O         -70.5282   32.7411  -71.7973 O.2       10 UNK        -0.5018 
     22 N         -72.1534   30.9946  -74.5866 N.am      10 UNK        -0.4509 
     23 C         -71.6298   31.2412  -75.7907 C.2       10 UNK         0.4899 
     24 O         -71.1086   32.3123  -76.1047 O.2       10 UNK        -0.4839 
     25 CA        -71.7137   30.0880  -76.8122 C.3       9 UNK         0.0222 
     26 CB        -70.6379   30.1948  -77.9134 C.3       9 UNK        -0.1966 
     27 N         -71.6998   28.7446  -76.2098 N.am      9 UNK        -0.4218 
     28 C         -70.7316   28.2070  -75.4456 C.2       9 UNK         0.5020 
     29 O         -69.7482   28.8389  -75.0560 O.2       9 UNK        -0.5274 
     30 CA        -70.8697   26.7279  -75.0233 C.3       8 UNK         0.0270 
     31 CB        -71.0573   26.6059  -73.5016 C.3       8 UNK        -0.1976 
     32 N         -71.9512   26.0106  -75.7068 N.am      8 UNK        -0.4313 
     33 C         -71.9213   25.6451  -76.9989 C.2       8 UNK         0.5041 
     34 O         -70.9286   25.7769  -77.7157 O.2       8 UNK        -0.5577 
     35 CA        -73.2112   25.0700  -77.6205 C.3       7 UNK         0.0284 
     36 CB        -73.0979   23.5448  -77.7719 C.3       7 UNK        -0.1958 
     37 N         -74.4399   25.3873  -76.8855 N.am      7 UNK        -0.4454 
     38 C         -74.8954   26.6208  -76.6135 C.2       7 UNK         0.5089 
     39 O         -74.3484   27.6514  -77.0083 O.2       7 UNK        -0.5125 
     40 CA        -76.1242   26.7315  -75.6902 C.3       6 UNK         0.0408 
     41 CB        -77.3976   26.9011  -76.5297 C.3       6 UNK        -0.1791 
     42 N         -76.3036   25.6022  -74.7693 N.am      6 UNK        -0.4762 
     43 C         -75.3837   25.1005  -73.9280 C.2       6 UNK         0.5007 
     44 O         -74.2594   25.5827  -73.7808 O.2       6 UNK        -0.5032 
     45 CA        -75.7306   23.7830  -73.2016 C.3       5 UNK         0.0783 
     46 C46       -76.0305   23.9914  -71.6947 C.3       11 UNK        -0.0857 
     47 S47       -77.7220   24.5796  -71.3212 S.3       11 UNK        -0.2512 
     48 C48       -77.4061   26.0949  -70.3605 C.3       11 UNK         0.0225 
     49 N         -76.7646   22.9846  -73.8754 N.am      5 UNK        -0.4615 
     50 C         -76.6709   22.4746  -75.1113 C.2       4 UNK         0.5053 
     51 O         -75.6936   22.6357  -75.8430 O.2       4 UNK        -0.5105 
     52 CA        -77.8875   21.7114  -75.6442 C.3       4 UNK         0.0263 
     53 CB        -78.7033   20.9987  -74.5462 C.3       4 UNK        -0.1981 
     54 N         -78.7401   22.6724  -76.3334 N.am      4 UNK        -0.4224 
     55 C         -79.1710   22.5913  -77.5952 C.2       3 UNK         0.4895 
     56 O         -78.9255   21.6436  -78.3439 O.2       3 UNK        -0.5091 
     57 CA        -80.0392   23.7695  -78.0904 C.3       3 UNK         0.0250 
     58 CB        -80.5615   23.5598  -79.5245 C.3       3 UNK        -0.1996 
     59 N         -81.1788   24.0452  -77.2067 N.am      3 UNK        -0.4254 
     60 C         -81.1132   24.6575  -76.0171 C.2       2 UNK         0.5004 
     61 O         -80.0582   25.0445  -75.5063 O.2       2 UNK        -0.5226 
     62 CA        -82.4269   24.7804  -75.2349 C.3       2 UNK         0.0269 
     63 CB        -82.5655   23.6068  -74.2510 C.3       2 UNK        -0.1926 
     64 N         -82.4576   26.0329  -74.4824 N.am      2 UNK        -0.4687 
     65 C         -82.9025   27.2047  -74.9578 C.2       1 UNK         0.5165 
     66 O         -83.3903   27.3361  -76.0820 O.2       1 UNK        -0.5079 
     67 H67       -83.0008   26.1917  -70.1634 H         1 UNK         0.0900 
     68 H68       -81.8003   27.4821  -70.2573 H         1 UNK         0.0900 
     69 H69       -83.4068   27.8188  -69.6107 H         1 UNK         0.0900 
     70 H70       -81.5327   28.2009  -72.3665 H         1 UNK         0.2959 
     71 H71       -83.7999   28.8888  -74.0401 H         1 UNK         0.1079 
     72 H72       -81.9245   30.4304  -73.9926 H         1 UNK         0.0837 
     73 H73       -82.0922   29.7852  -75.5933 H         1 UNK         0.0837 
     74 H74       -80.1876   29.8651  -72.3089 H         1 UNK         0.0685 
     75 H75       -79.1895   30.8628  -73.3403 H         1 UNK         0.0685 
     76 H76       -79.3306   27.7037  -71.3953 H         1 UNK         0.1434 
     77 H77       -75.0834   27.1286  -71.3764 H         1 UNK         0.1329 
     78 H78       -76.8059   30.3050  -73.6857 H         1 UNK         0.1335 
     79 H79       -74.5078   29.7315  -73.9973 H         1 UNK         0.0680 
     80 H80       -73.9533   28.1769  -73.4641 H         1 UNK         0.0680 
     81 H81       -73.2254   32.2522  -71.5771 H         1 UNK         0.1032 
     82 H82       -74.2263   31.8461  -72.9304 H         1 UNK         0.1032 
     83 H83       -72.2506   32.9009  -73.7921 H         1 UNK         0.0461 
     84 H84       -68.8620   31.1445  -72.5766 H         1 UNK         0.3453 
     85 H85       -69.8807   30.4160  -73.7950 H         1 UNK         0.3453 
     86 H86       -72.5173   30.0717  -74.4079 H         1 UNK         0.2984 
     87 H87       -72.6873   30.1869  -77.2944 H         1 UNK         0.0554 
     88 H88       -70.7317   31.1302  -78.4663 H         1 UNK         0.0847 
     89 H89       -70.7281   29.3835  -78.6358 H         1 UNK         0.0847 
     90 H90       -69.6303   30.1626  -77.4974 H         1 UNK         0.0847 
     91 H91       -72.4978   28.1638  -76.4532 H         1 UNK         0.3141 
     92 H92       -69.9279   26.2390  -75.2813 H         1 UNK         0.0743 
     93 H93       -70.2320   27.0774  -72.9661 H         1 UNK         0.0784 
     94 H94       -71.9756   27.0834  -73.1634 H         1 UNK         0.0784 
     95 H95       -71.0904   25.5623  -73.1886 H         1 UNK         0.0784 
     96 H96       -72.7982   25.8485  -75.1687 H         1 UNK         0.3213 
     97 H97       -73.3080   25.5076  -78.6162 H         1 UNK         0.0855 
     98 H98       -73.0177   23.0496  -76.8032 H         1 UNK         0.0814 
     99 H99       -72.2153   23.2726  -78.3524 H         1 UNK         0.0814 
    100 H100      -73.9644   23.1304  -78.2878 H         1 UNK         0.0814 
    101 H101      -74.9469   24.5972  -76.5016 H         1 UNK         0.3105 
    102 H102      -75.9956   27.6284  -75.0859 H         1 UNK         0.0547 
    103 H103      -77.5887   26.0277  -77.1533 H         1 UNK         0.0837 
    104 H104      -77.3203   27.7662  -77.1896 H         1 UNK         0.0837 
    105 H105      -78.2699   27.0574  -75.8962 H         1 UNK         0.0837 
    106 H106      -77.2059   25.1495  -74.7929 H         1 UNK         0.3020 
    107 H107      -74.8137   23.1911  -73.2572 H         1 UNK         0.1245 
    108 H108      -75.2891   24.6526  -71.2427 H         1 UNK         0.0781 
    109 H109      -75.9096   23.0381  -71.1780 H         1 UNK         0.0781 
    110 H110      -76.5379   25.9621  -69.7132 H         1 UNK         0.0836 
    111 H111      -78.2519   26.2658  -69.6928 H         1 UNK         0.0836 
    112 H112      -77.6100   22.8320  -73.3444 H         1 UNK         0.3022 
    113 H113      -77.5122   20.9573  -76.3394 H         1 UNK         0.0747 
    114 H114      -79.4770   20.3704  -74.9880 H         1 UNK         0.0793 
    115 H115      -78.0683   20.3482  -73.9430 H         1 UNK         0.0793 
    116 H116      -79.2001   21.6994  -73.8741 H         1 UNK         0.0793 
    117 H117      -79.0074   23.5058  -75.8142 H         1 UNK         0.3047 
    118 H118      -79.3956   24.6514  -78.1034 H         1 UNK         0.0822 
    119 H119      -81.1218   24.4272  -79.8740 H         1 UNK         0.0807 
    120 H120      -81.2132   22.6879  -79.5939 H         1 UNK         0.0807 
    121 H121      -79.7377   23.4081  -80.2234 H         1 UNK         0.0807 
    122 H122      -82.0758   23.7091  -77.5274 H         1 UNK         0.2946 
    123 H123      -83.2667   24.7548  -75.9335 H         1 UNK         0.1144 
    124 H124      -83.4978   23.6687  -73.6893 H         1 UNK         0.0793 
    125 H125      -81.7433   23.5802  -73.5342 H         1 UNK         0.0793 
    126 H126      -82.5683   22.6516  -74.7780 H         1 UNK         0.0793 
    127 H127      -82.0181   26.0265  -73.5742 H         1 UNK         0.2896 
@<TRIPOS>BOND
     1    1    2 1    
     2    1   67 1    
     3    1   68 1    
     4    1   69 1    
     5    2    3 2    
     6    2    4 am   BACKBONE|DICT|INTERRES
     7    4    5 1    
     8    4   70 1    
     9    5    6 1    
    10    5   65 1    
    11    5   71 1    
    12    6    7 1    
    13    6   72 1    
    14    6   73 1    
    15    7    8 1    
    16    8    9 1    
    17    8   74 1    
    18    8   75 1    
    19    9   10 ar   
    20    9   14 ar   
    21   10   11 ar   
    22   10   76 1    
    23   11   12 ar   
    24   11   48 1    
    25   12   13 ar   
    26   12   77 1    
    27   13   14 ar   
    28   13   15 1    
    29   14   78 1    
    30   15   16 1    
    31   15   79 1    
    32   15   80 1    
    33   16   17 1    
    34   17   18 1    
    35   17   81 1    
    36   17   82 1    
    37   18   19 1    
    38   18   22 1    
    39   18   83 1    
    40   19   20 am   BACKBONE|DICT|INTERRES
    41   19   21 2    
    42   20   84 1    
    43   20   85 1    
    44   22   23 am   BACKBONE|DICT|INTERRES
    45   22   86 1    
    46   23   24 2    
    47   23   25 1    
    48   25   26 1    
    49   25   27 1    
    50   25   87 1    
    51   26   88 1    
    52   26   89 1    
    53   26   90 1    
    54   27   28 am   BACKBONE|DICT|INTERRES
    55   27   91 1    
    56   28   29 2    
    57   28   30 1    
    58   30   31 1    
    59   30   32 1    
    60   30   92 1    
    61   31   93 1    
    62   31   94 1    
    63   31   95 1    
    64   32   33 am   BACKBONE|DICT|INTERRES
    65   32   96 1    
    66   33   34 2    
    67   33   35 1    
    68   35   36 1    
    69   35   37 1    
    70   35   97 1    
    71   36   98 1    
    72   36   99 1    
    73   36  100 1    
    74   37   38 am   BACKBONE|DICT|INTERRES
    75   37  101 1    
    76   38   39 2    
    77   38   40 1    
    78   40   41 1    
    79   40   42 1    
    80   40  102 1    
    81   41  103 1    
    82   41  104 1    
    83   41  105 1    
    84   42   43 am   BACKBONE|DICT|INTERRES
    85   42  106 1    
    86   43   44 2    
    87   43   45 1    
    88   45   46 1    
    89   45   49 1    
    90   45  107 1    
    91   46   47 1    
    92   46  108 1    
    93   46  109 1    
    94   47   48 1    
    95   48  110 1    
    96   48  111 1    
    97   49   50 am   BACKBONE|DICT|INTERRES
    98   49  112 1    
    99   50   51 2    
   100   50   52 1    
   101   52   53 1    
   102   52   54 1    
   103   52  113 1    
   104   53  114 1    
   105   53  115 1    
   106   53  116 1    
   107   54   55 am   BACKBONE|DICT|INTERRES
   108   54  117 1    
   109   55   56 2    
   110   55   57 1    
   111   57   58 1    
   112   57   59 1    
   113   57  118 1    
   114   58  119 1    
   115   58  120 1    
   116   58  121 1    
   117   59   60 am   BACKBONE|DICT|INTERRES
   118   59  122 1    
   119   60   61 2    
   120   60   62 1    
   121   62   63 1    
   122   62   64 1    
   123   62  123 1    
   124   63  124 1    
   125   63  125 1    
   126   63  126 1    
   127   64   65 am   BACKBONE|DICT|INTERRES
   128   64  127 1    
   129   65   66 2    
@<TRIPOS>SUBSTRUCTURE
     1 UNK         1 GROUP             0       ****    0 ROOT    
