@<TRIPOS>MOLECULE
3R135
127   129    1
SMALL
USER_CHARGES


@<TRIPOS>ATOM
      1 CA        -82.6376   27.3678  -69.9384 C.3       0 UNK        -0.1998 
      2 C         -83.3009   27.1879  -71.2957 C.2       0 UNK         0.4909 
      3 O         -84.3423   26.5380  -71.3890 O.2       0 UNK        -0.5240 
      4 N         -82.7033   27.7581  -72.3501 N.am      1 UNK        -0.4739 
      5 CA        -83.1771   27.6678  -73.7379 C.3       1 UNK         0.0864 
      6 C6        -82.6125   28.8242  -74.6062 C.3       11 UNK        -0.0881 
      7 S7        -80.7981   28.7771  -74.8208 S.3       11 UNK        -0.2682 
      8 C8        -80.2290   29.9629  -73.5665 C.3       11 UNK         0.0289 
      9 C9        -78.8455   29.5735  -73.0744 C.ar      11 UNK        -0.0687 
     10 C10       -78.7078   28.6487  -72.0354 C.ar      11 UNK        -0.0823 
     11 C11       -77.4409   28.2566  -71.5954 C.ar      11 UNK        -0.0830 
     12 C12       -76.3052   28.8037  -72.2002 C.ar      11 UNK        -0.1021 
     13 C13       -76.4301   29.7269  -73.2428 C.ar      11 UNK        -0.0753 
     14 C14       -77.7036   30.1130  -73.6717 C.ar      11 UNK        -0.0933 
     15 C15       -75.1958   30.2708  -73.9438 C.3       11 UNK         0.0166 
     16 S16       -74.4234   31.6314  -73.0131 S.3       11 UNK        -0.2615 
     17 C17       -73.0983   30.7611  -72.1030 C.3       11 UNK        -0.0865 
     18 CA        -71.7323   30.8385  -72.8372 C.3       10 UNK         0.0862 
     19 C         -70.5748   30.2756  -71.9595 C.2       10 UNK         0.5551 
     20 N         -69.7832   29.3130  -72.4201 N.am      10 UNK        -0.7319 
     21 O         -70.3843   30.7316  -70.8347 O.2       10 UNK        -0.5018 
     22 N         -71.8141   30.2316  -74.1732 N.am      10 UNK        -0.4509 
     23 C         -71.0922   30.5910  -75.2393 C.2       10 UNK         0.4899 
     24 O         -70.2963   31.5315  -75.2461 O.2       10 UNK        -0.4839 
     25 CA        -71.3040   29.7412  -76.5093 C.3       9 UNK         0.0222 
     26 CB        -70.1298   29.8535  -77.5045 C.3       9 UNK        -0.1966 
     27 N         -71.6096   28.3303  -76.2267 N.am      9 UNK        -0.4218 
     28 C         -70.8436   27.4567  -75.5482 C.2       9 UNK         0.5020 
     29 O         -69.7731   27.7606  -75.0193 O.2       9 UNK        -0.5274 
     30 CA        -71.3540   26.0106  -75.3913 C.3       8 UNK         0.0270 
     31 CB        -71.6403   25.6978  -73.9124 C.3       8 UNK        -0.1976 
     32 N         -72.5470   25.7259  -76.1947 N.am      8 UNK        -0.4313 
     33 C         -72.5251   25.5096  -77.5193 C.2       8 UNK         0.5041 
     34 O         -71.4837   25.4453  -78.1742 O.2       8 UNK        -0.5577 
     35 CA        -73.8692   25.3616  -78.2600 C.3       7 UNK         0.0284 
     36 CB        -74.1096   23.8900  -78.6348 C.3       7 UNK        -0.1958 
     37 N         -75.0389   25.8703  -77.5371 N.am      7 UNK        -0.4454 
     38 C         -75.2268   27.1346  -77.1318 C.2       7 UNK         0.5089 
     39 O         -74.4224   28.0463  -77.3314 O.2       7 UNK        -0.5125 
     40 CA        -76.4871   27.4018  -76.2881 C.3       6 UNK         0.0408 
     41 CB        -77.7107   27.6189  -77.1889 C.3       6 UNK        -0.1791 
     42 N         -76.7657   26.3388  -75.3141 N.am      6 UNK        -0.4762 
     43 C         -75.9096   25.9352  -74.3607 C.2       6 UNK         0.5007 
     44 O         -74.7954   26.4318  -74.1952 O.2       6 UNK        -0.5032 
     45 CA        -76.3264   24.7211  -73.5107 C.3       5 UNK         0.0783 
     46 C46       -77.2692   25.0961  -72.3409 C.3       11 UNK        -0.0857 
     47 S47       -76.3366   25.7728  -70.9248 S.3       11 UNK        -0.2512 
     48 C48       -77.3095   27.2440  -70.4645 C.3       11 UNK         0.0225 
     49 N         -76.8981   23.6825  -74.3684 N.am      5 UNK        -0.4615 
     50 C         -76.1663   22.8156  -75.0828 C.2       4 UNK         0.5053 
     51 O         -74.9389   22.7474  -75.0236 O.2       4 UNK        -0.5105 
     52 CA        -76.9202   21.8674  -76.0332 C.3       4 UNK         0.0263 
     53 CB        -77.2080   20.5281  -75.3363 C.3       4 UNK        -0.1981 
     54 N         -78.1746   22.4272  -76.5414 N.am      4 UNK        -0.4224 
     55 C         -78.2602   23.4866  -77.3584 C.2       3 UNK         0.4895 
     56 O         -77.2846   24.0822  -77.8121 O.2       3 UNK        -0.5091 
     57 CA        -79.6736   24.0023  -77.6781 C.3       3 UNK         0.0250 
     58 CB        -80.2426   23.2839  -78.9117 C.3       3 UNK        -0.1996 
     59 N         -80.6154   23.8818  -76.5585 N.am      3 UNK        -0.4254 
     60 C         -80.4530   24.4570  -75.3589 C.2       2 UNK         0.5004 
     61 O         -79.4599   25.1171  -75.0410 O.2       2 UNK        -0.5226 
     62 CA        -81.5534   24.2117  -74.3192 C.3       2 UNK         0.0269 
     63 CB        -81.0220   23.3440  -73.1662 C.3       2 UNK        -0.1926 
     64 N         -82.0159   25.4890  -73.7850 N.am      2 UNK        -0.4687 
     65 C         -82.9188   26.2828  -74.3785 C.2       1 UNK         0.5165 
     66 O         -83.5369   25.9634  -75.3958 O.2       1 UNK        -0.5079 
     67 H67       -81.7565   28.0065  -69.9943 H         1 UNK         0.0900 
     68 H68       -82.3320   26.4010  -69.5395 H         1 UNK         0.0900 
     69 H69       -83.3377   27.8197  -69.2364 H         1 UNK         0.0900 
     70 H70       -81.8515   28.2818  -72.2201 H         1 UNK         0.2959 
     71 H71       -84.2632   27.7855  -73.7179 H         1 UNK         0.1079 
     72 H72       -82.9042   29.7867  -74.1830 H         1 UNK         0.0837 
     73 H73       -83.0665   28.7986  -75.5987 H         1 UNK         0.0837 
     74 H74       -80.2188   30.9658  -73.9961 H         1 UNK         0.0685 
     75 H75       -80.9223   29.9960  -72.7255 H         1 UNK         0.0685 
     76 H76       -79.5892   28.2240  -71.5772 H         1 UNK         0.1434 
     77 H77       -75.3249   28.4866  -71.8746 H         1 UNK         0.1329 
     78 H78       -77.8074   30.8171  -74.4859 H         1 UNK         0.1335 
     79 H79       -75.4613   30.6418  -74.9350 H         1 UNK         0.0680 
     80 H80       -74.4856   29.4607  -74.1127 H         1 UNK         0.0680 
     81 H81       -73.0266   31.2269  -71.1182 H         1 UNK         0.1032 
     82 H82       -73.3805   29.7237  -71.9209 H         1 UNK         0.1032 
     83 H83       -71.5014   31.8975  -72.9678 H         1 UNK         0.0461 
     84 H84       -69.8989   28.9338  -73.3531 H         1 UNK         0.3453 
     85 H85       -69.0390   28.9709  -71.8338 H         1 UNK         0.3453 
     86 H86       -72.4191   29.4300  -74.2599 H         1 UNK         0.2984 
     87 H87       -72.1904   30.1475  -76.9986 H         1 UNK         0.0554 
     88 H88       -70.3107   29.2588  -78.3999 H         1 UNK         0.0847 
     89 H89       -69.1915   29.5170  -77.0623 H         1 UNK         0.0847 
     90 H90       -69.9855   30.8854  -77.8268 H         1 UNK         0.0847 
     91 H91       -72.4971   28.0026  -76.5969 H         1 UNK         0.3141 
     92 H92       -70.5522   25.3472  -75.7224 H         1 UNK         0.0743 
     93 H93       -72.0672   24.7023  -73.7878 H         1 UNK         0.0784 
     94 H94       -70.7216   25.7323  -73.3253 H         1 UNK         0.0784 
     95 H95       -72.3278   26.4184  -73.4695 H         1 UNK         0.0784 
     96 H96       -73.4396   25.7883  -75.7161 H         1 UNK         0.3213 
     97 H97       -73.7858   25.9390  -79.1830 H         1 UNK         0.0855 
     98 H98       -73.2624   23.4806  -79.1868 H         1 UNK         0.0814 
     99 H99       -74.9890   23.7801  -79.2696 H         1 UNK         0.0814 
    100 H100      -74.2540   23.2690  -77.7500 H         1 UNK         0.0814 
    101 H101      -75.7931   25.2053  -77.3802 H         1 UNK         0.3105 
    102 H102      -76.3190   28.3192  -75.7246 H         1 UNK         0.0547 
    103 H103      -77.5624   28.4779  -77.8441 H         1 UNK         0.0837 
    104 H104      -77.9036   26.7553  -77.8244 H         1 UNK         0.0837 
    105 H105      -78.6076   27.8100  -76.6006 H         1 UNK         0.0837 
    106 H106      -77.6801   25.8969  -75.3614 H         1 UNK         0.3020 
    107 H107      -75.4094   24.3144  -73.0764 H         1 UNK         0.1245 
    108 H108      -77.7823   24.2051  -71.9762 H         1 UNK         0.0781 
    109 H109      -78.0559   25.7802  -72.6643 H         1 UNK         0.0781 
    110 H110      -76.8300   27.7291  -69.6132 H         1 UNK         0.0836 
    111 H111      -78.2904   26.9166  -70.1164 H         1 UNK         0.0836 
    112 H112      -77.8961   23.7353  -74.5261 H         1 UNK         0.3022 
    113 H113      -76.2687   21.6760  -76.8887 H         1 UNK         0.0747 
    114 H114      -77.6678   19.8148  -76.0206 H         1 UNK         0.0793 
    115 H115      -76.2863   20.0738  -74.9697 H         1 UNK         0.0793 
    116 H116      -77.8730   20.6515  -74.4805 H         1 UNK         0.0793 
    117 H117      -79.0308   21.9982  -76.2221 H         1 UNK         0.3047 
    118 H118      -79.5872   25.0643  -77.9144 H         1 UNK         0.0822 
    119 H119      -80.3898   22.2186  -78.7293 H         1 UNK         0.0807 
    120 H120      -79.5672   23.3783  -79.7635 H         1 UNK         0.0807 
    121 H121      -81.2001   23.7094  -79.2128 H         1 UNK         0.0807 
    122 H122      -81.4581   23.3537  -76.7359 H         1 UNK         0.2946 
    123 H123      -82.3922   23.6906  -74.7869 H         1 UNK         0.1144 
    124 H124      -80.6667   22.3799  -73.5325 H         1 UNK         0.0793 
    125 H125      -80.1912   23.8229  -72.6469 H         1 UNK         0.0793 
    126 H126      -81.8022   23.1429  -72.4318 H         1 UNK         0.0793 
    127 H127      -81.5206   25.8527  -72.9850 H         1 UNK         0.2896 
@<TRIPOS>BOND
     1    1    2 1    
     2    1   67 1    
     3    1   68 1    
     4    1   69 1    
     5    2    3 2    
     6    2    4 am   BACKBONE|DICT|INTERRES
     7    4    5 1    
     8    4   70 1    
     9    5    6 1    
    10    5   65 1    
    11    5   71 1    
    12    6    7 1    
    13    6   72 1    
    14    6   73 1    
    15    7    8 1    
    16    8    9 1    
    17    8   74 1    
    18    8   75 1    
    19    9   10 ar   
    20    9   14 ar   
    21   10   11 ar   
    22   10   76 1    
    23   11   12 ar   
    24   11   48 1    
    25   12   13 ar   
    26   12   77 1    
    27   13   14 ar   
    28   13   15 1    
    29   14   78 1    
    30   15   16 1    
    31   15   79 1    
    32   15   80 1    
    33   16   17 1    
    34   17   18 1    
    35   17   81 1    
    36   17   82 1    
    37   18   19 1    
    38   18   22 1    
    39   18   83 1    
    40   19   20 am   BACKBONE|DICT|INTERRES
    41   19   21 2    
    42   20   84 1    
    43   20   85 1    
    44   22   23 am   BACKBONE|DICT|INTERRES
    45   22   86 1    
    46   23   24 2    
    47   23   25 1    
    48   25   26 1    
    49   25   27 1    
    50   25   87 1    
    51   26   88 1    
    52   26   89 1    
    53   26   90 1    
    54   27   28 am   BACKBONE|DICT|INTERRES
    55   27   91 1    
    56   28   29 2    
    57   28   30 1    
    58   30   31 1    
    59   30   32 1    
    60   30   92 1    
    61   31   93 1    
    62   31   94 1    
    63   31   95 1    
    64   32   33 am   BACKBONE|DICT|INTERRES
    65   32   96 1    
    66   33   34 2    
    67   33   35 1    
    68   35   36 1    
    69   35   37 1    
    70   35   97 1    
    71   36   98 1    
    72   36   99 1    
    73   36  100 1    
    74   37   38 am   BACKBONE|DICT|INTERRES
    75   37  101 1    
    76   38   39 2    
    77   38   40 1    
    78   40   41 1    
    79   40   42 1    
    80   40  102 1    
    81   41  103 1    
    82   41  104 1    
    83   41  105 1    
    84   42   43 am   BACKBONE|DICT|INTERRES
    85   42  106 1    
    86   43   44 2    
    87   43   45 1    
    88   45   46 1    
    89   45   49 1    
    90   45  107 1    
    91   46   47 1    
    92   46  108 1    
    93   46  109 1    
    94   47   48 1    
    95   48  110 1    
    96   48  111 1    
    97   49   50 am   BACKBONE|DICT|INTERRES
    98   49  112 1    
    99   50   51 2    
   100   50   52 1    
   101   52   53 1    
   102   52   54 1    
   103   52  113 1    
   104   53  114 1    
   105   53  115 1    
   106   53  116 1    
   107   54   55 am   BACKBONE|DICT|INTERRES
   108   54  117 1    
   109   55   56 2    
   110   55   57 1    
   111   57   58 1    
   112   57   59 1    
   113   57  118 1    
   114   58  119 1    
   115   58  120 1    
   116   58  121 1    
   117   59   60 am   BACKBONE|DICT|INTERRES
   118   59  122 1    
   119   60   61 2    
   120   60   62 1    
   121   62   63 1    
   122   62   64 1    
   123   62  123 1    
   124   63  124 1    
   125   63  125 1    
   126   63  126 1    
   127   64   65 am   BACKBONE|DICT|INTERRES
   128   64  127 1    
   129   65   66 2    
@<TRIPOS>SUBSTRUCTURE
     1 UNK         1 GROUP             0       ****    0 ROOT    
