@<TRIPOS>MOLECULE
3R135
127   129    1
SMALL
USER_CHARGES


@<TRIPOS>ATOM
      1 CA        -84.6434   27.7826  -73.2640 C.3       0 UNK        -0.1998 
      2 C         -83.3910   28.2727  -73.9754 C.2       0 UNK         0.4909 
      3 O         -83.4937   28.9835  -74.9764 O.2       0 UNK        -0.5240 
      4 N         -82.2112   27.9063  -73.4595 N.am      1 UNK        -0.4739 
      5 CA        -80.9028   28.2334  -74.0413 C.3       1 UNK         0.0864 
      6 C6        -79.7553   28.0623  -73.0128 C.3       11 UNK        -0.0881 
      7 S7        -80.0122   29.1199  -71.5474 S.3       11 UNK        -0.2682 
      8 C8        -79.2174   28.1446  -70.2327 C.3       11 UNK         0.0289 
      9 C9        -77.7020   28.2360  -70.3163 C.ar      11 UNK        -0.0687 
     10 C10       -76.9458   27.1515  -70.7693 C.ar      11 UNK        -0.0823 
     11 C11       -75.5532   27.2489  -70.8610 C.ar      11 UNK        -0.0830 
     12 C12       -74.9175   28.4320  -70.4728 C.ar      11 UNK        -0.1021 
     13 C13       -75.6647   29.5227  -70.0205 C.ar      11 UNK        -0.0753 
     14 C14       -77.0553   29.4157  -69.9383 C.ar      11 UNK        -0.0933 
     15 C15       -74.9815   30.8212  -69.6221 C.3       11 UNK         0.0166 
     16 S16       -75.1164   32.0709  -70.9394 S.3       11 UNK        -0.2615 
     17 C17       -73.6960   31.6607  -72.0124 C.3       11 UNK        -0.0865 
     18 CA        -73.9973   30.6528  -73.1572 C.3       10 UNK         0.0862 
     19 C         -75.0522   31.1680  -74.1680 C.2       10 UNK         0.5551 
     20 N         -76.3161   30.8108  -73.9855 N.am      10 UNK        -0.7319 
     21 O         -74.7372   31.9054  -75.1003 O.2       10 UNK        -0.5018 
     22 N         -72.7679   30.2904  -73.8665 N.am      10 UNK        -0.4509 
     23 C         -71.8236   29.4577  -73.4212 C.2       10 UNK         0.4899 
     24 O         -71.8867   28.8740  -72.3385 O.2       10 UNK        -0.4839 
     25 CA        -70.5936   29.2599  -74.3314 C.3       9 UNK         0.0222 
     26 CB        -69.5669   28.2799  -73.7314 C.3       9 UNK        -0.1966 
     27 N         -70.9502   28.7981  -75.6749 N.am      9 UNK        -0.4218 
     28 C         -71.4532   29.5492  -76.6646 C.2       9 UNK         0.5020 
     29 O         -71.6956   30.7510  -76.5458 O.2       9 UNK        -0.5274 
     30 CA        -71.7226   28.8591  -78.0164 C.3       8 UNK         0.0270 
     31 CB        -70.6937   29.3142  -79.0654 C.3       8 UNK        -0.1976 
     32 N         -71.7104   27.3938  -77.9404 N.am      8 UNK        -0.4313 
     33 C         -72.7026   26.6560  -77.4286 C.2       8 UNK         0.5041 
     34 O         -73.7570   27.1254  -76.9914 O.2       8 UNK        -0.5577 
     35 CA        -72.4610   25.1445  -77.3671 C.3       7 UNK         0.0284 
     36 CB        -71.5297   24.7833  -76.1933 C.3       7 UNK        -0.1958 
     37 N         -73.7523   24.4945  -77.1923 N.am      7 UNK        -0.4454 
     38 C         -74.0492   23.2214  -77.4699 C.2       7 UNK         0.5089 
     39 O         -73.2389   22.4169  -77.9335 O.2       7 UNK        -0.5125 
     40 CA        -75.5016   22.7853  -77.1880 C.3       6 UNK         0.0408 
     41 CB        -75.6510   21.2586  -77.0204 C.3       6 UNK        -0.1791 
     42 N         -76.1051   23.5063  -76.0598 N.am      6 UNK        -0.4762 
     43 C         -75.7191   23.4838  -74.7729 C.2       6 UNK         0.5007 
     44 O         -74.8068   22.7817  -74.3356 O.2       6 UNK        -0.5032 
     45 CA        -76.5080   24.3911  -73.8097 C.3       5 UNK         0.0783 
     46 C46       -76.0509   25.8707  -73.8925 C.3       11 UNK        -0.0857 
     47 S47       -74.4052   26.1693  -73.1592 S.3       11 UNK        -0.2512 
     48 C48       -74.7298   26.0740  -71.3664 C.3       11 UNK         0.0225 
     49 N         -77.9420   24.2581  -74.0729 N.am      5 UNK        -0.4615 
     50 C         -78.7375   23.3478  -73.4933 C.2       4 UNK         0.5053 
     51 O         -78.3834   22.6270  -72.5604 O.2       4 UNK        -0.5105 
     52 CA        -80.1661   23.1986  -74.0502 C.3       4 UNK         0.0263 
     53 CB        -81.1664   24.0031  -73.2049 C.3       4 UNK        -0.1981 
     54 N         -80.2660   23.5955  -75.4589 N.am      4 UNK        -0.4224 
     55 C         -79.7633   22.8700  -76.4714 C.2       3 UNK         0.4895 
     56 O         -79.2865   21.7447  -76.3245 O.2       3 UNK        -0.5091 
     57 CA        -79.7587   23.4898  -77.8829 C.3       3 UNK         0.0250 
     58 CB        -80.8888   22.8896  -78.7348 C.3       3 UNK        -0.1996 
     59 N         -79.8604   24.9518  -77.9177 N.am      3 UNK        -0.4254 
     60 C         -78.9906   25.8153  -77.3752 C.2       2 UNK         0.5004 
     61 O         -77.9781   25.4702  -76.7653 O.2       2 UNK        -0.5226 
     62 CA        -79.3346   27.3148  -77.4657 C.3       2 UNK         0.0269 
     63 CB        -80.4181   27.6453  -78.5177 C.3       2 UNK        -0.1926 
     64 N         -79.7162   27.8798  -76.1625 N.am      2 UNK        -0.4687 
     65 C         -80.6431   27.4026  -75.3164 C.2       1 UNK         0.5165 
     66 O         -81.2638   26.3512  -75.5026 O.2       1 UNK        -0.5079 
     67 H67       -84.4050   27.1761  -72.3903 H         1 UNK         0.0900 
     68 H68       -85.2444   28.6298  -72.9349 H         1 UNK         0.0900 
     69 H69       -85.2464   27.1785  -73.9413 H         1 UNK         0.0900 
     70 H70       -82.1886   27.3230  -72.6364 H         1 UNK         0.2959 
     71 H71       -80.9315   29.2829  -74.3441 H         1 UNK         0.1079 
     72 H72       -79.6674   27.0205  -72.7011 H         1 UNK         0.0837 
     73 H73       -78.7925   28.3316  -73.4514 H         1 UNK         0.0837 
     74 H74       -79.5557   27.1084  -70.2806 H         1 UNK         0.0685 
     75 H75       -79.5455   28.5274  -69.2653 H         1 UNK         0.0685 
     76 H76       -77.4413   26.2354  -71.0605 H         1 UNK         0.1434 
     77 H77       -73.8409   28.5103  -70.5439 H         1 UNK         0.1329 
     78 H78       -77.6384   30.2593  -69.5943 H         1 UNK         0.1335 
     79 H79       -73.9352   30.6512  -69.3641 H         1 UNK         0.0680 
     80 H80       -75.4547   31.2132  -68.7205 H         1 UNK         0.0680 
     81 H81       -72.8916   31.2811  -71.3813 H         1 UNK         0.1032 
     82 H82       -73.3158   32.5929  -72.4339 H         1 UNK         0.1032 
     83 H83       -74.3936   29.7342  -72.7260 H         1 UNK         0.0461 
     84 H84       -77.0184   31.1524  -74.6213 H         1 UNK         0.3453 
     85 H85       -76.5797   30.2469  -73.1925 H         1 UNK         0.3453 
     86 H86       -72.6559   30.7087  -74.7869 H         1 UNK         0.2984 
     87 H87       -70.1053   30.2326  -74.4206 H         1 UNK         0.0554 
     88 H88       -69.2322   28.6168  -72.7493 H         1 UNK         0.0847 
     89 H89       -68.6803   28.1968  -74.3601 H         1 UNK         0.0847 
     90 H90       -69.9868   27.2807  -73.6069 H         1 UNK         0.0847 
     91 H91       -70.8190   27.8152  -75.8576 H         1 UNK         0.3141 
     92 H92       -72.7121   29.1798  -78.3499 H         1 UNK         0.0743 
     93 H93       -70.7021   30.3996  -79.1755 H         1 UNK         0.0784 
     94 H94       -69.6790   29.0233  -78.7904 H         1 UNK         0.0784 
     95 H95       -70.9120   28.8908  -80.0460 H         1 UNK         0.0784 
     96 H96       -70.8822   26.9291  -78.2870 H         1 UNK         0.3213 
     97 H97       -72.0191   24.8190  -78.3114 H         1 UNK         0.0855 
     98 H98       -71.9454   25.1080  -75.2379 H         1 UNK         0.0814 
     99 H99       -70.5508   25.2510  -76.3032 H         1 UNK         0.0814 
    100 H100      -71.3645   23.7074  -76.1333 H         1 UNK         0.0814 
    101 H101      -74.4782   25.1187  -76.8592 H         1 UNK         0.3105 
    102 H102      -76.0782   23.0749  -78.0675 H         1 UNK         0.0547 
    103 H103      -76.6855   20.9801  -76.8217 H         1 UNK         0.0837 
    104 H104      -75.0378   20.8774  -76.2035 H         1 UNK         0.0837 
    105 H105      -75.3443   20.7347  -77.9263 H         1 UNK         0.0837 
    106 H106      -76.8416   24.1634  -76.3158 H         1 UNK         0.3020 
    107 H107      -76.3097   24.0283  -72.7999 H         1 UNK         0.1245 
    108 H108      -76.7720   26.5204  -73.3983 H         1 UNK         0.0781 
    109 H109      -76.0272   26.2141  -74.9287 H         1 UNK         0.0781 
    110 H110      -73.7704   26.0554  -70.8470 H         1 UNK         0.0836 
    111 H111      -75.2167   25.1310  -71.1179 H         1 UNK         0.0836 
    112 H112      -78.2925   24.7740  -74.8715 H         1 UNK         0.3022 
    113 H113      -80.4388   22.1437  -73.9746 H         1 UNK         0.0747 
    114 H114      -82.1827   23.8993  -73.5852 H         1 UNK         0.0793 
    115 H115      -81.1689   23.6551  -72.1711 H         1 UNK         0.0793 
    116 H116      -80.9222   25.0638  -73.1880 H         1 UNK         0.0793 
    117 H117      -80.6600   24.5142  -75.6493 H         1 UNK         0.3047 
    118 H118      -78.8052   23.2209  -78.3423 H         1 UNK         0.0822 
    119 H119      -80.8372   23.2374  -79.7668 H         1 UNK         0.0807 
    120 H120      -81.8721   23.1487  -78.3401 H         1 UNK         0.0807 
    121 H121      -80.8243   21.8007  -78.7595 H         1 UNK         0.0807 
    122 H122      -80.6865   25.3326  -78.3558 H         1 UNK         0.2946 
    123 H123      -78.4124   27.8125  -77.7710 H         1 UNK         0.1144 
    124 H124      -80.1510   27.2528  -79.5001 H         1 UNK         0.0793 
    125 H125      -80.5328   28.7236  -78.6297 H         1 UNK         0.0793 
    126 H126      -81.3952   27.2421  -78.2484 H         1 UNK         0.0793 
    127 H127      -79.2270   28.7257  -75.9046 H         1 UNK         0.2896 
@<TRIPOS>BOND
     1    1    2 1    
     2    1   67 1    
     3    1   68 1    
     4    1   69 1    
     5    2    3 2    
     6    2    4 am   BACKBONE|DICT|INTERRES
     7    4    5 1    
     8    4   70 1    
     9    5    6 1    
    10    5   65 1    
    11    5   71 1    
    12    6    7 1    
    13    6   72 1    
    14    6   73 1    
    15    7    8 1    
    16    8    9 1    
    17    8   74 1    
    18    8   75 1    
    19    9   10 ar   
    20    9   14 ar   
    21   10   11 ar   
    22   10   76 1    
    23   11   12 ar   
    24   11   48 1    
    25   12   13 ar   
    26   12   77 1    
    27   13   14 ar   
    28   13   15 1    
    29   14   78 1    
    30   15   16 1    
    31   15   79 1    
    32   15   80 1    
    33   16   17 1    
    34   17   18 1    
    35   17   81 1    
    36   17   82 1    
    37   18   19 1    
    38   18   22 1    
    39   18   83 1    
    40   19   20 am   BACKBONE|DICT|INTERRES
    41   19   21 2    
    42   20   84 1    
    43   20   85 1    
    44   22   23 am   BACKBONE|DICT|INTERRES
    45   22   86 1    
    46   23   24 2    
    47   23   25 1    
    48   25   26 1    
    49   25   27 1    
    50   25   87 1    
    51   26   88 1    
    52   26   89 1    
    53   26   90 1    
    54   27   28 am   BACKBONE|DICT|INTERRES
    55   27   91 1    
    56   28   29 2    
    57   28   30 1    
    58   30   31 1    
    59   30   32 1    
    60   30   92 1    
    61   31   93 1    
    62   31   94 1    
    63   31   95 1    
    64   32   33 am   BACKBONE|DICT|INTERRES
    65   32   96 1    
    66   33   34 2    
    67   33   35 1    
    68   35   36 1    
    69   35   37 1    
    70   35   97 1    
    71   36   98 1    
    72   36   99 1    
    73   36  100 1    
    74   37   38 am   BACKBONE|DICT|INTERRES
    75   37  101 1    
    76   38   39 2    
    77   38   40 1    
    78   40   41 1    
    79   40   42 1    
    80   40  102 1    
    81   41  103 1    
    82   41  104 1    
    83   41  105 1    
    84   42   43 am   BACKBONE|DICT|INTERRES
    85   42  106 1    
    86   43   44 2    
    87   43   45 1    
    88   45   46 1    
    89   45   49 1    
    90   45  107 1    
    91   46   47 1    
    92   46  108 1    
    93   46  109 1    
    94   47   48 1    
    95   48  110 1    
    96   48  111 1    
    97   49   50 am   BACKBONE|DICT|INTERRES
    98   49  112 1    
    99   50   51 2    
   100   50   52 1    
   101   52   53 1    
   102   52   54 1    
   103   52  113 1    
   104   53  114 1    
   105   53  115 1    
   106   53  116 1    
   107   54   55 am   BACKBONE|DICT|INTERRES
   108   54  117 1    
   109   55   56 2    
   110   55   57 1    
   111   57   58 1    
   112   57   59 1    
   113   57  118 1    
   114   58  119 1    
   115   58  120 1    
   116   58  121 1    
   117   59   60 am   BACKBONE|DICT|INTERRES
   118   59  122 1    
   119   60   61 2    
   120   60   62 1    
   121   62   63 1    
   122   62   64 1    
   123   62  123 1    
   124   63  124 1    
   125   63  125 1    
   126   63  126 1    
   127   64   65 am   BACKBONE|DICT|INTERRES
   128   64  127 1    
   129   65   66 2    
@<TRIPOS>SUBSTRUCTURE
     1 UNK         1 GROUP             0       ****    0 ROOT    
