@<TRIPOS>MOLECULE
3R135
127   129    1
SMALL
USER_CHARGES


@<TRIPOS>ATOM
      1 CA        -83.3101   25.8860  -69.9862 C.3       0 UNK        -0.1998 
      2 C         -82.6158   26.4549  -71.2139 C.2       0 UNK         0.4909 
      3 O         -81.7431   25.7957  -71.7766 O.2       0 UNK        -0.5240 
      4 N         -83.0006   27.6728  -71.6250 N.am      1 UNK        -0.4739 
      5 CA        -82.4644   28.4214  -72.7760 C.3       1 UNK         0.0864 
      6 C6        -80.9731   28.8276  -72.6140 C.3       11 UNK        -0.0881 
      7 S7        -80.6897   29.9071  -71.1679 S.3       11 UNK        -0.2682 
      8 C8        -79.8635   28.7861  -69.9919 C.3       11 UNK         0.0289 
      9 C9        -78.5118   28.3044  -70.5000 C.ar      11 UNK        -0.0687 
     10 C10       -78.3302   26.9656  -70.8608 C.ar      11 UNK        -0.0823 
     11 C11       -77.0915   26.5182  -71.3299 C.ar      11 UNK        -0.0830 
     12 C12       -76.0300   27.4216  -71.4397 C.ar      11 UNK        -0.1021 
     13 C13       -76.2012   28.7632  -71.0860 C.ar      11 UNK        -0.0753 
     14 C14       -77.4408   29.1966  -70.6067 C.ar      11 UNK        -0.0933 
     15 C15       -75.0494   29.7454  -71.2214 C.3       11 UNK         0.0166 
     16 S16       -75.2380   30.7767  -72.7084 S.3       11 UNK        -0.2615 
     17 C17       -73.6787   31.7252  -72.6594 C.3       11 UNK        -0.0865 
     18 CA        -73.0804   32.0091  -74.0633 C.3       10 UNK         0.0862 
     19 C         -71.7453   32.7993  -73.9178 C.2       10 UNK         0.5551 
     20 N         -70.5853   32.1925  -74.1461 N.am      10 UNK        -0.7319 
     21 O         -71.7677   33.9823  -73.5874 O.2       10 UNK        -0.5018 
     22 N         -72.9765   30.7862  -74.8738 N.am      10 UNK        -0.4509 
     23 C         -72.6725   30.7394  -76.1774 C.2       10 UNK         0.4899 
     24 O         -72.5877   31.7397  -76.8917 O.2       10 UNK        -0.4839 
     25 CA        -72.4112   29.3435  -76.7854 C.3       9 UNK         0.0222 
     26 CB        -71.3370   29.3860  -77.8919 C.3       9 UNK        -0.1966 
     27 N         -72.0860   28.3003  -75.8006 N.am      9 UNK        -0.4218 
     28 C         -71.0811   28.2955  -74.9077 C.2       9 UNK         0.5020 
     29 O         -70.2683   29.2119  -74.7737 O.2       9 UNK        -0.5274 
     30 CA        -70.9950   27.0713  -73.9872 C.3       8 UNK         0.0270 
     31 CB        -72.1087   27.1129  -72.9252 C.3       8 UNK        -0.1976 
     32 N         -71.0986   25.8366  -74.7644 N.am      8 UNK        -0.4313 
     33 C         -70.0518   25.1381  -75.2267 C.2       8 UNK         0.5041 
     34 O         -68.8778   25.4073  -74.9689 O.2       8 UNK        -0.5577 
     35 CA        -70.3595   23.9323  -76.1351 C.3       7 UNK         0.0284 
     36 CB        -70.4471   22.6412  -75.3051 C.3       7 UNK        -0.1958 
     37 N         -71.5942   24.0975  -76.9059 N.am      7 UNK        -0.4454 
     38 C         -71.7591   24.9822  -77.8995 C.2       7 UNK         0.5089 
     39 O         -70.8509   25.6786  -78.3517 O.2       7 UNK        -0.5125 
     40 CA        -73.1805   25.1378  -78.4711 C.3       6 UNK         0.0408 
     41 CB        -73.3101   24.3830  -79.8033 C.3       6 UNK        -0.1791 
     42 N         -74.2515   24.7002  -77.5674 N.am      6 UNK        -0.4762 
     43 C         -74.5537   25.2378  -76.3772 C.2       6 UNK         0.5007 
     44 O         -73.8874   26.1426  -75.8686 O.2       6 UNK        -0.5032 
     45 CA        -75.7784   24.6571  -75.6280 C.3       5 UNK         0.0783 
     46 C46       -76.1846   25.5250  -74.4094 C.3       11 UNK        -0.0857 
     47 S47       -77.4861   24.7318  -73.4063 S.3       11 UNK        -0.2512 
     48 C48       -76.9056   25.0573  -71.7128 C.3       11 UNK         0.0225 
     49 N         -76.9230   24.4141  -76.5189 N.am      5 UNK        -0.4615 
     50 C         -77.0605   23.3933  -77.3716 C.2       4 UNK         0.5053 
     51 O         -76.1874   22.5416  -77.5466 O.2       4 UNK        -0.5105 
     52 CA        -78.3841   23.3224  -78.1559 C.3       4 UNK         0.0263 
     53 CB        -78.3980   22.1794  -79.1887 C.3       4 UNK        -0.1981 
     54 N         -79.5341   23.1676  -77.2615 N.am      4 UNK        -0.4224 
     55 C         -80.1322   24.1631  -76.5961 C.2       3 UNK         0.4895 
     56 O         -79.7599   25.3388  -76.6423 O.2       3 UNK        -0.5091 
     57 CA        -81.3315   23.7739  -75.7255 C.3       3 UNK         0.0250 
     58 CB        -80.8821   23.3267  -74.3236 C.3       3 UNK        -0.1996 
     59 N         -82.2272   24.9200  -75.6115 N.am      3 UNK        -0.4254 
     60 C         -83.5521   24.8622  -75.4472 C.2       2 UNK         0.5004 
     61 O         -84.1796   23.8064  -75.3400 O.2       2 UNK        -0.5226 
     62 CA        -84.2929   26.2123  -75.3731 C.3       2 UNK         0.0269 
     63 CB        -85.8241   26.0482  -75.3274 C.3       2 UNK        -0.1926 
     64 N         -83.8688   26.9904  -74.2068 N.am      2 UNK        -0.4687 
     65 C         -82.7459   27.7185  -74.1259 C.2       1 UNK         0.5165 
     66 O         -81.9626   27.8433  -75.0696 O.2       1 UNK        -0.5079 
     67 H67       -83.8081   24.9500  -70.2377 H         1 UNK         0.0900 
     68 H68       -84.0566   26.5708  -69.5841 H         1 UNK         0.0900 
     69 H69       -82.5792   25.6838  -69.2037 H         1 UNK         0.0900 
     70 H70       -83.7216   28.1554  -71.1061 H         1 UNK         0.2959 
     71 H71       -83.0428   29.3456  -72.8239 H         1 UNK         0.1079 
     72 H72       -80.3361   27.9441  -72.5675 H         1 UNK         0.0837 
     73 H73       -80.6329   29.3886  -73.4863 H         1 UNK         0.0837 
     74 H74       -80.5204   27.9440  -69.7727 H         1 UNK         0.0685 
     75 H75       -79.7210   29.3130  -69.0475 H         1 UNK         0.0685 
     76 H76       -79.1566   26.2709  -70.7877 H         1 UNK         0.1434 
     77 H77       -75.0709   27.0822  -71.8046 H         1 UNK         0.1329 
     78 H78       -77.5785   30.2344  -70.3349 H         1 UNK         0.1335 
     79 H79       -74.1001   29.2094  -71.2665 H         1 UNK         0.0680 
     80 H80       -75.0040   30.3857  -70.3391 H         1 UNK         0.0680 
     81 H81       -73.8744   32.6628  -72.1352 H         1 UNK         0.1032 
     82 H82       -72.9510   31.1869  -72.0488 H         1 UNK         0.1032 
     83 H83       -73.7732   32.6708  -74.5867 H         1 UNK         0.0461 
     84 H84       -69.7284   32.7135  -74.0498 H         1 UNK         0.3453 
     85 H85       -70.5538   31.2132  -74.4090 H         1 UNK         0.3453 
     86 H86       -73.0542   29.9162  -74.3706 H         1 UNK         0.2984 
     87 H87       -73.3503   29.0355  -77.2471 H         1 UNK         0.0554 
     88 H88       -71.1826   28.4015  -78.3327 H         1 UNK         0.0847 
     89 H89       -70.3777   29.7354  -77.5089 H         1 UNK         0.0847 
     90 H90       -71.6288   30.0569  -78.7007 H         1 UNK         0.0847 
     91 H91       -72.7289   27.5090  -75.7966 H         1 UNK         0.3141 
     92 H92       -70.0349   27.1058  -73.4675 H         1 UNK         0.0743 
     93 H93       -72.0388   28.0207  -72.3246 H         1 UNK         0.0784 
     94 H94       -73.1035   27.0919  -73.3714 H         1 UNK         0.0784 
     95 H95       -72.0327   26.2673  -72.2414 H         1 UNK         0.0784 
     96 H96       -72.0271   25.5724  -75.0702 H         1 UNK         0.3213 
     97 H97       -69.5309   23.8314  -76.8398 H         1 UNK         0.0855 
     98 H98       -71.2680   22.6747  -74.5876 H         1 UNK         0.0814 
     99 H99       -69.5279   22.4794  -74.7400 H         1 UNK         0.0814 
    100 H100      -70.5909   21.7681  -75.9418 H         1 UNK         0.0814 
    101 H101      -72.3915   23.5446  -76.6270 H         1 UNK         0.3105 
    102 H102      -73.3318   26.2017  -78.6656 H         1 UNK         0.0547 
    103 H103      -73.1987   23.3063  -79.6697 H         1 UNK         0.0837 
    104 H104      -74.2778   24.5653  -80.2709 H         1 UNK         0.0837 
    105 H105      -72.5451   24.7048  -80.5115 H         1 UNK         0.0837 
    106 H106      -74.8250   23.9209  -77.8771 H         1 UNK         0.3020 
    107 H107      -75.4498   23.6903  -75.2397 H         1 UNK         0.1245 
    108 H108      -76.5391   26.5067  -74.7291 H         1 UNK         0.0781 
    109 H109      -75.3187   25.7048  -73.7709 H         1 UNK         0.0781 
    110 H110      -77.4678   24.4257  -71.0234 H         1 UNK         0.0836 
    111 H111      -75.8613   24.7574  -71.6122 H         1 UNK         0.0836 
    112 H112      -77.7051   25.0537  -76.4263 H         1 UNK         0.3022 
    113 H113      -78.4840   24.2618  -78.7042 H         1 UNK         0.0747 
    114 H114      -77.5720   22.2800  -79.8942 H         1 UNK         0.0793 
    115 H115      -79.3197   22.1822  -79.7710 H         1 UNK         0.0793 
    116 H116      -78.3039   21.2021  -78.7135 H         1 UNK         0.0793 
    117 H117      -79.8745   22.2252  -77.1329 H         1 UNK         0.3047 
    118 H118      -81.8566   22.9523  -76.2178 H         1 UNK         0.0822 
    119 H119      -80.1559   22.5148  -74.3774 H         1 UNK         0.0807 
    120 H120      -81.7261   22.9709  -73.7326 H         1 UNK         0.0807 
    121 H121      -80.4188   24.1469  -73.7738 H         1 UNK         0.0807 
    122 H122      -81.7773   25.8282  -75.6907 H         1 UNK         0.2946 
    123 H123      -84.0459   26.7659  -76.2823 H         1 UNK         0.1144 
    124 H124      -86.1478   25.5085  -74.4365 H         1 UNK         0.0793 
    125 H125      -86.1832   25.4921  -76.1946 H         1 UNK         0.0793 
    126 H126      -86.3270   27.0154  -75.3350 H         1 UNK         0.0793 
    127 H127      -84.4373   26.9066  -73.3764 H         1 UNK         0.2896 
@<TRIPOS>BOND
     1    1    2 1    
     2    1   67 1    
     3    1   68 1    
     4    1   69 1    
     5    2    3 2    
     6    2    4 am   BACKBONE|DICT|INTERRES
     7    4    5 1    
     8    4   70 1    
     9    5    6 1    
    10    5   65 1    
    11    5   71 1    
    12    6    7 1    
    13    6   72 1    
    14    6   73 1    
    15    7    8 1    
    16    8    9 1    
    17    8   74 1    
    18    8   75 1    
    19    9   10 ar   
    20    9   14 ar   
    21   10   11 ar   
    22   10   76 1    
    23   11   12 ar   
    24   11   48 1    
    25   12   13 ar   
    26   12   77 1    
    27   13   14 ar   
    28   13   15 1    
    29   14   78 1    
    30   15   16 1    
    31   15   79 1    
    32   15   80 1    
    33   16   17 1    
    34   17   18 1    
    35   17   81 1    
    36   17   82 1    
    37   18   19 1    
    38   18   22 1    
    39   18   83 1    
    40   19   20 am   BACKBONE|DICT|INTERRES
    41   19   21 2    
    42   20   84 1    
    43   20   85 1    
    44   22   23 am   BACKBONE|DICT|INTERRES
    45   22   86 1    
    46   23   24 2    
    47   23   25 1    
    48   25   26 1    
    49   25   27 1    
    50   25   87 1    
    51   26   88 1    
    52   26   89 1    
    53   26   90 1    
    54   27   28 am   BACKBONE|DICT|INTERRES
    55   27   91 1    
    56   28   29 2    
    57   28   30 1    
    58   30   31 1    
    59   30   32 1    
    60   30   92 1    
    61   31   93 1    
    62   31   94 1    
    63   31   95 1    
    64   32   33 am   BACKBONE|DICT|INTERRES
    65   32   96 1    
    66   33   34 2    
    67   33   35 1    
    68   35   36 1    
    69   35   37 1    
    70   35   97 1    
    71   36   98 1    
    72   36   99 1    
    73   36  100 1    
    74   37   38 am   BACKBONE|DICT|INTERRES
    75   37  101 1    
    76   38   39 2    
    77   38   40 1    
    78   40   41 1    
    79   40   42 1    
    80   40  102 1    
    81   41  103 1    
    82   41  104 1    
    83   41  105 1    
    84   42   43 am   BACKBONE|DICT|INTERRES
    85   42  106 1    
    86   43   44 2    
    87   43   45 1    
    88   45   46 1    
    89   45   49 1    
    90   45  107 1    
    91   46   47 1    
    92   46  108 1    
    93   46  109 1    
    94   47   48 1    
    95   48  110 1    
    96   48  111 1    
    97   49   50 am   BACKBONE|DICT|INTERRES
    98   49  112 1    
    99   50   51 2    
   100   50   52 1    
   101   52   53 1    
   102   52   54 1    
   103   52  113 1    
   104   53  114 1    
   105   53  115 1    
   106   53  116 1    
   107   54   55 am   BACKBONE|DICT|INTERRES
   108   54  117 1    
   109   55   56 2    
   110   55   57 1    
   111   57   58 1    
   112   57   59 1    
   113   57  118 1    
   114   58  119 1    
   115   58  120 1    
   116   58  121 1    
   117   59   60 am   BACKBONE|DICT|INTERRES
   118   59  122 1    
   119   60   61 2    
   120   60   62 1    
   121   62   63 1    
   122   62   64 1    
   123   62  123 1    
   124   63  124 1    
   125   63  125 1    
   126   63  126 1    
   127   64   65 am   BACKBONE|DICT|INTERRES
   128   64  127 1    
   129   65   66 2    
@<TRIPOS>SUBSTRUCTURE
     1 UNK         1 GROUP             0       ****    0 ROOT    
