@<TRIPOS>MOLECULE
3R135
127   129    1
SMALL
USER_CHARGES


@<TRIPOS>ATOM
      1 CA        -83.5703   29.5914  -75.8302 C.3       0 UNK        -0.1998 
      2 C         -82.3247   29.0035  -76.4760 C.2       0 UNK         0.4909 
      3 O         -82.3138   28.7705  -77.6850 O.2       0 UNK        -0.5240 
      4 N         -81.2748   28.7658  -75.6785 N.am      1 UNK        -0.4739 
      5 CA        -79.9931   28.1978  -76.1229 C.3       1 UNK         0.0864 
      6 C6        -78.8827   28.3632  -75.0579 C.3       11 UNK        -0.0881 
      7 S7        -78.6041   30.1071  -74.5972 S.3       11 UNK        -0.2682 
      8 C8        -79.2723   30.1622  -72.9019 C.3       11 UNK         0.0289 
      9 C9        -78.3371   29.4902  -71.9077 C.ar      11 UNK        -0.0687 
     10 C10       -78.5876   28.1899  -71.4570 C.ar      11 UNK        -0.0823 
     11 C11       -77.7069   27.5635  -70.5691 C.ar      11 UNK        -0.0830 
     12 C12       -76.5822   28.2591  -70.1143 C.ar      11 UNK        -0.1021 
     13 C13       -76.3181   29.5554  -70.5635 C.ar      11 UNK        -0.0753 
     14 C14       -77.2067   30.1711  -71.4488 C.ar      11 UNK        -0.0933 
     15 C15       -75.0503   30.2735  -70.1244 C.3       11 UNK         0.0166 
     16 S16       -73.9169   30.5643  -71.5217 S.3       11 UNK        -0.2615 
     17 C17       -73.7310   28.8817  -72.2153 C.3       11 UNK        -0.0865 
     18 CA        -72.3552   28.6661  -72.9002 C.3       10 UNK         0.0862 
     19 C         -72.1452   27.1963  -73.3717 C.2       10 UNK         0.5551 
     20 N         -71.5368   26.9443  -74.5256 N.am      10 UNK        -0.7319 
     21 O         -72.5222   26.2613  -72.6696 O.2       10 UNK        -0.5018 
     22 N         -72.1216   29.6535  -73.9662 N.am      10 UNK        -0.4509 
     23 C         -70.9789   30.3215  -74.1571 C.2       10 UNK         0.4899 
     24 O         -69.9869   30.2057  -73.4347 O.2       10 UNK        -0.4839 
     25 CA        -70.9434   31.2784  -75.3666 C.3       9 UNK         0.0222 
     26 CB        -69.5164   31.7658  -75.6971 C.3       9 UNK        -0.1966 
     27 N         -71.5834   30.7368  -76.5735 N.am      9 UNK        -0.4218 
     28 C         -71.2963   29.5911  -77.2073 C.2       9 UNK         0.5020 
     29 O         -70.5022   28.7480  -76.7849 O.2       9 UNK        -0.5274 
     30 CA        -72.0493   29.3465  -78.5288 C.3       8 UNK         0.0270 
     31 CB        -71.4085   28.2265  -79.3702 C.3       8 UNK        -0.1976 
     32 N         -73.4536   29.0131  -78.2965 N.am      8 UNK        -0.4313 
     33 C         -74.4134   29.8583  -77.8966 C.2       8 UNK         0.5041 
     34 O         -74.2261   31.0632  -77.7178 O.2       8 UNK        -0.5577 
     35 CA        -75.8121   29.2606  -77.6479 C.3       7 UNK         0.0284 
     36 CB        -76.7551   29.5837  -78.8179 C.3       7 UNK        -0.1958 
     37 N         -75.7899   27.8087  -77.4315 N.am      7 UNK        -0.4454 
     38 C         -75.3129   27.2279  -76.3242 C.2       7 UNK         0.5089 
     39 O         -74.8747   27.8522  -75.3557 O.2       7 UNK        -0.5125 
     40 CA        -75.3010   25.6979  -76.3031 C.3       6 UNK         0.0408 
     41 CB        -73.9971   25.1490  -76.9112 C.3       6 UNK        -0.1791 
     42 N         -75.4421   25.2792  -74.9144 N.am      6 UNK        -0.4762 
     43 C         -75.8515   24.0776  -74.4957 C.2       6 UNK         0.5007 
     44 O         -76.0110   23.1221  -75.2596 O.2       6 UNK        -0.5032 
     45 CA        -76.1540   23.9060  -72.9905 C.3       5 UNK         0.0783 
     46 C46       -76.2603   25.2504  -72.2189 C.3       11 UNK        -0.0857 
     47 S47       -76.5227   25.0397  -70.4250 S.3       11 UNK        -0.2512 
     48 C48       -77.9585   26.1258  -70.1256 C.3       11 UNK         0.0225 
     49 N         -77.3783   23.1122  -72.9026 N.am      5 UNK        -0.4615 
     50 C         -77.5502   22.0078  -72.1661 C.2       4 UNK         0.5053 
     51 O         -76.7250   21.5794  -71.3586 O.2       4 UNK        -0.5105 
     52 CA        -78.8604   21.2250  -72.3900 C.3       4 UNK         0.0263 
     53 CB        -79.9486   21.7092  -71.4181 C.3       4 UNK        -0.1981 
     54 N         -79.3518   21.3441  -73.7658 N.am      4 UNK        -0.4224 
     55 C         -78.7112   20.8690  -74.8434 C.2       3 UNK         0.4895 
     56 O         -77.7692   20.0780  -74.7721 O.2       3 UNK        -0.5091 
     57 CA        -79.1663   21.3585  -76.2350 C.3       3 UNK         0.0250 
     58 CB        -79.6545   20.1763  -77.0910 C.3       3 UNK        -0.1996 
     59 N         -80.1919   22.4124  -76.2666 N.am      3 UNK        -0.4254 
     60 C         -80.1114   23.6442  -75.7422 C.2       2 UNK         0.5004 
     61 O         -79.1935   24.0314  -75.0152 O.2       2 UNK        -0.5226 
     62 CA        -81.3077   24.5669  -76.0364 C.3       2 UNK         0.0269 
     63 CB        -82.5056   24.1897  -75.1474 C.3       2 UNK        -0.1926 
     64 N         -81.0099   25.9859  -75.8328 N.am      2 UNK        -0.4687 
     65 C         -80.1232   26.7143  -76.5281 C.2       1 UNK         0.5165 
     66 O         -79.4447   26.2754  -77.4583 O.2       1 UNK        -0.5079 
     67 H67       -83.8162   30.5473  -76.2919 H         1 UNK         0.0900 
     68 H68       -83.4374   29.7560  -74.7611 H         1 UNK         0.0900 
     69 H69       -84.4166   28.9187  -75.9672 H         1 UNK         0.0900 
     70 H70       -81.3332   29.0044  -74.6998 H         1 UNK         0.2959 
     71 H71       -79.6852   28.7434  -77.0178 H         1 UNK         0.1079 
     72 H72       -79.1108   27.7717  -74.1712 H         1 UNK         0.0837 
     73 H73       -77.9377   27.9732  -75.4353 H         1 UNK         0.0837 
     74 H74       -80.2618   29.7040  -72.8764 H         1 UNK         0.0685 
     75 H75       -79.4139   31.2054  -72.6156 H         1 UNK         0.0685 
     76 H76       -79.4603   27.6585  -71.8107 H         1 UNK         0.1434 
     77 H77       -75.8941   27.7742  -69.4353 H         1 UNK         0.1329 
     78 H78       -76.9991   31.1702  -71.8074 H         1 UNK         0.1335 
     79 H79       -75.3150   31.2314  -69.6748 H         1 UNK         0.0680 
     80 H80       -74.5256   29.7050  -69.3548 H         1 UNK         0.0680 
     81 H81       -73.8641   28.1586  -71.4085 H         1 UNK         0.1032 
     82 H82       -74.5475   28.7052  -72.9169 H         1 UNK         0.1032 
     83 H83       -71.6049   28.8091  -72.1207 H         1 UNK         0.0461 
     84 H84       -71.2030   27.6955  -75.1176 H         1 UNK         0.3453 
     85 H85       -71.3910   25.9873  -74.8007 H         1 UNK         0.3453 
     86 H86       -72.8786   29.7736  -74.6239 H         1 UNK         0.2984 
     87 H87       -71.5305   32.1511  -75.0769 H         1 UNK         0.0554 
     88 H88       -69.0681   32.2775  -74.8445 H         1 UNK         0.0847 
     89 H89       -69.5193   32.4702  -76.5288 H         1 UNK         0.0847 
     90 H90       -68.8590   30.9367  -75.9619 H         1 UNK         0.0847 
     91 H91       -72.3465   31.2859  -76.9605 H         1 UNK         0.3141 
     92 H92       -72.0023   30.2690  -79.1118 H         1 UNK         0.0743 
     93 H93       -70.3585   28.4434  -79.5718 H         1 UNK         0.0784 
     94 H94       -71.4497   27.2620  -78.8620 H         1 UNK         0.0784 
     95 H95       -71.9060   28.1197  -80.3343 H         1 UNK         0.0784 
     96 H96       -73.7035   28.0413  -78.3977 H         1 UNK         0.3213 
     97 H97       -76.2108   29.7346  -76.7478 H         1 UNK         0.0855 
     98 H98       -76.4096   29.1385  -79.7517 H         1 UNK         0.0814 
     99 H99       -76.8231   30.6610  -78.9762 H         1 UNK         0.0814 
    100 H100      -77.7653   29.2225  -78.6257 H         1 UNK         0.0814 
    101 H101      -76.1515   27.2285  -78.1761 H         1 UNK         0.3105 
    102 H102      -76.1586   25.3312  -76.8718 H         1 UNK         0.0547 
    103 H103      -73.8875   25.4576  -77.9512 H         1 UNK         0.0837 
    104 H104      -73.1208   25.5058  -76.3703 H         1 UNK         0.0837 
    105 H105      -73.9764   24.0595  -76.8974 H         1 UNK         0.0837 
    106 H106      -75.3085   26.0343  -74.2524 H         1 UNK         0.3020 
    107 H107      -75.3154   23.3383  -72.5809 H         1 UNK         0.1245 
    108 H108      -77.0638   25.8574  -72.6401 H         1 UNK         0.0781 
    109 H109      -75.3434   25.8333  -72.3233 H         1 UNK         0.0781 
    110 H110      -78.8255   25.7042  -70.6371 H         1 UNK         0.0836 
    111 H111      -78.1935   26.1181  -69.0606 H         1 UNK         0.0836 
    112 H112      -78.0825   23.3525  -73.5970 H         1 UNK         0.3022 
    113 H113      -78.6596   20.1705  -72.1891 H         1 UNK         0.0747 
    114 H114      -79.6167   21.6113  -70.3835 H         1 UNK         0.0793 
    115 H115      -80.8628   21.1243  -71.5211 H         1 UNK         0.0793 
    116 H116      -80.1986   22.7584  -71.5816 H         1 UNK         0.0793 
    117 H117      -80.1124   21.9888  -73.9217 H         1 UNK         0.3047 
    118 H118      -78.2753   21.7751  -76.7100 H         1 UNK         0.0822 
    119 H119      -79.8636   20.4851  -78.1155 H         1 UNK         0.0807 
    120 H120      -80.5616   19.7305  -76.6807 H         1 UNK         0.0807 
    121 H121      -78.9007   19.3892  -77.1440 H         1 UNK         0.0807 
    122 H122      -81.0164   22.1885  -76.8055 H         1 UNK         0.2946 
    123 H123      -81.5857   24.4368  -77.0849 H         1 UNK         0.1144 
    124 H124      -82.8023   23.1509  -75.2983 H         1 UNK         0.0793 
    125 H125      -83.3767   24.8051  -75.3736 H         1 UNK         0.0793 
    126 H126      -82.2752   24.3118  -74.0880 H         1 UNK         0.0793 
    127 H127      -81.5096   26.4460  -75.0868 H         1 UNK         0.2896 
@<TRIPOS>BOND
     1    1    2 1    
     2    1   67 1    
     3    1   68 1    
     4    1   69 1    
     5    2    3 2    
     6    2    4 am   BACKBONE|DICT|INTERRES
     7    4    5 1    
     8    4   70 1    
     9    5    6 1    
    10    5   65 1    
    11    5   71 1    
    12    6    7 1    
    13    6   72 1    
    14    6   73 1    
    15    7    8 1    
    16    8    9 1    
    17    8   74 1    
    18    8   75 1    
    19    9   10 ar   
    20    9   14 ar   
    21   10   11 ar   
    22   10   76 1    
    23   11   12 ar   
    24   11   48 1    
    25   12   13 ar   
    26   12   77 1    
    27   13   14 ar   
    28   13   15 1    
    29   14   78 1    
    30   15   16 1    
    31   15   79 1    
    32   15   80 1    
    33   16   17 1    
    34   17   18 1    
    35   17   81 1    
    36   17   82 1    
    37   18   19 1    
    38   18   22 1    
    39   18   83 1    
    40   19   20 am   BACKBONE|DICT|INTERRES
    41   19   21 2    
    42   20   84 1    
    43   20   85 1    
    44   22   23 am   BACKBONE|DICT|INTERRES
    45   22   86 1    
    46   23   24 2    
    47   23   25 1    
    48   25   26 1    
    49   25   27 1    
    50   25   87 1    
    51   26   88 1    
    52   26   89 1    
    53   26   90 1    
    54   27   28 am   BACKBONE|DICT|INTERRES
    55   27   91 1    
    56   28   29 2    
    57   28   30 1    
    58   30   31 1    
    59   30   32 1    
    60   30   92 1    
    61   31   93 1    
    62   31   94 1    
    63   31   95 1    
    64   32   33 am   BACKBONE|DICT|INTERRES
    65   32   96 1    
    66   33   34 2    
    67   33   35 1    
    68   35   36 1    
    69   35   37 1    
    70   35   97 1    
    71   36   98 1    
    72   36   99 1    
    73   36  100 1    
    74   37   38 am   BACKBONE|DICT|INTERRES
    75   37  101 1    
    76   38   39 2    
    77   38   40 1    
    78   40   41 1    
    79   40   42 1    
    80   40  102 1    
    81   41  103 1    
    82   41  104 1    
    83   41  105 1    
    84   42   43 am   BACKBONE|DICT|INTERRES
    85   42  106 1    
    86   43   44 2    
    87   43   45 1    
    88   45   46 1    
    89   45   49 1    
    90   45  107 1    
    91   46   47 1    
    92   46  108 1    
    93   46  109 1    
    94   47   48 1    
    95   48  110 1    
    96   48  111 1    
    97   49   50 am   BACKBONE|DICT|INTERRES
    98   49  112 1    
    99   50   51 2    
   100   50   52 1    
   101   52   53 1    
   102   52   54 1    
   103   52  113 1    
   104   53  114 1    
   105   53  115 1    
   106   53  116 1    
   107   54   55 am   BACKBONE|DICT|INTERRES
   108   54  117 1    
   109   55   56 2    
   110   55   57 1    
   111   57   58 1    
   112   57   59 1    
   113   57  118 1    
   114   58  119 1    
   115   58  120 1    
   116   58  121 1    
   117   59   60 am   BACKBONE|DICT|INTERRES
   118   59  122 1    
   119   60   61 2    
   120   60   62 1    
   121   62   63 1    
   122   62   64 1    
   123   62  123 1    
   124   63  124 1    
   125   63  125 1    
   126   63  126 1    
   127   64   65 am   BACKBONE|DICT|INTERRES
   128   64  127 1    
   129   65   66 2    
@<TRIPOS>SUBSTRUCTURE
     1 UNK         1 GROUP             0       ****    0 ROOT    
