@<TRIPOS>MOLECULE
3R135
127   129    1
SMALL
USER_CHARGES


@<TRIPOS>ATOM
      1 CA        -80.1245   29.0164  -75.1182 C.3       0 UNK        -0.1998 
      2 C         -81.5682   29.2532  -74.6876 C.2       0 UNK         0.4909 
      3 O         -82.2750   30.0185  -75.3398 O.2       0 UNK        -0.5240 
      4 N         -82.0588   28.6208  -73.6122 N.am      1 UNK        -0.4739 
      5 CA        -81.3476   27.6753  -72.7345 C.3       1 UNK         0.0864 
      6 C6        -81.8502   27.7510  -71.2689 C.3       11 UNK        -0.0881 
      7 S7        -81.7241   29.4371  -70.5747 S.3       11 UNK        -0.2682 
      8 C8        -80.1818   29.3505  -69.6038 C.3       11 UNK         0.0289 
      9 C9        -78.9599   29.0533  -70.4646 C.ar      11 UNK        -0.0687 
     10 C10       -78.2032   27.8995  -70.2366 C.ar      11 UNK        -0.0823 
     11 C11       -77.0897   27.6121  -71.0318 C.ar      11 UNK        -0.0830 
     12 C12       -76.7463   28.4793  -72.0716 C.ar      11 UNK        -0.1021 
     13 C13       -77.4704   29.6551  -72.2888 C.ar      11 UNK        -0.0753 
     14 C14       -78.5750   29.9375  -71.4785 C.ar      11 UNK        -0.0933 
     15 C15       -77.0656   30.6184  -73.3978 C.3       11 UNK         0.0166 
     16 S16       -75.5882   31.5884  -72.9517 S.3       11 UNK        -0.2615 
     17 C17       -74.2445   30.4123  -73.3303 C.3       11 UNK        -0.0865 
     18 CA        -73.0336   31.0937  -74.0220 C.3       10 UNK         0.0862 
     19 C         -72.0185   31.6404  -72.9794 C.2       10 UNK         0.5551 
     20 N         -72.1043   32.9185  -72.6378 N.am      10 UNK        -0.7319 
     21 O         -71.1875   30.9049  -72.4503 O.2       10 UNK        -0.5018 
     22 N         -72.4314   30.1810  -75.0026 N.am      10 UNK        -0.4509 
     23 C         -71.4384   30.4690  -75.8532 C.2       10 UNK         0.4899 
     24 O         -70.8928   31.5708  -75.9294 O.2       10 UNK        -0.4839 
     25 CA        -71.0291   29.3412  -76.8196 C.3       9 UNK         0.0222 
     26 CB        -69.5783   29.4705  -77.3328 C.3       9 UNK        -0.1966 
     27 N         -71.3171   27.9997  -76.2929 N.am      9 UNK        -0.4218 
     28 C         -70.6800   27.3397  -75.3104 C.2       9 UNK         0.5020 
     29 O         -69.6954   27.7812  -74.7171 O.2       9 UNK        -0.5274 
     30 CA        -71.2336   25.9590  -74.8903 C.3       8 UNK         0.0270 
     31 CB        -71.7060   25.9931  -73.4263 C.3       8 UNK        -0.1976 
     32 N         -72.3324   25.4749  -75.7336 N.am      8 UNK        -0.4313 
     33 C         -72.1946   25.0389  -76.9959 C.2       8 UNK         0.5041 
     34 O         -71.1002   24.8754  -77.5363 O.2       8 UNK        -0.5577 
     35 CA        -73.4733   24.7810  -77.8214 C.3       7 UNK         0.0284 
     36 CB        -73.7071   23.2702  -77.9832 C.3       7 UNK        -0.1958 
     37 N         -74.6957   25.3992  -77.2948 N.am      7 UNK        -0.4454 
     38 C         -74.8857   26.7008  -77.0308 C.2       7 UNK         0.5089 
     39 O         -74.0477   27.5756  -77.2524 O.2       7 UNK        -0.5125 
     40 CA        -76.2020   27.0772  -76.3250 C.3       6 UNK         0.0408 
     41 CB        -77.2740   27.4307  -77.3651 C.3       6 UNK        -0.1791 
     42 N         -76.7074   26.0302  -75.4255 N.am      6 UNK        -0.4762 
     43 C         -76.0319   25.5137  -74.3840 C.2       6 UNK         0.5007 
     44 O         -74.9051   25.8859  -74.0560 O.2       6 UNK        -0.5032 
     45 CA        -76.6978   24.3519  -73.6251 C.3       5 UNK         0.0783 
     46 C46       -77.7411   24.8520  -72.5954 C.3       11 UNK        -0.0857 
     47 S47       -77.1341   24.8175  -70.8787 S.3       11 UNK        -0.2512 
     48 C48       -76.2263   26.3895  -70.7488 C.3       11 UNK         0.0225 
     49 N         -77.2911   23.4151  -74.5786 N.am      5 UNK        -0.4615 
     50 C         -76.6388   22.3896  -75.1401 C.2       4 UNK         0.5053 
     51 O         -75.4814   22.0790  -74.8599 O.2       4 UNK        -0.5105 
     52 CA        -77.3979   21.5697  -76.1993 C.3       4 UNK         0.0263 
     53 CB        -78.0159   20.3142  -75.5634 C.3       4 UNK        -0.1981 
     54 N         -78.4472   22.3281  -76.8860 N.am      4 UNK        -0.4224 
     55 C         -78.2251   23.3746  -77.6932 C.2       3 UNK         0.4895 
     56 O         -77.1050   23.8038  -77.9682 O.2       3 UNK        -0.5091 
     57 CA        -79.4656   24.0929  -78.2484 C.3       3 UNK         0.0250 
     58 CB        -79.9353   23.4226  -79.5493 C.3       3 UNK        -0.1996 
     59 N         -80.5892   24.1795  -77.3064 N.am      3 UNK        -0.4254 
     60 C         -80.5496   24.7701  -76.1031 C.2       2 UNK         0.5004 
     61 O         -79.5174   25.2240  -75.6001 O.2       2 UNK        -0.5226 
     62 CA        -81.8930   24.8552  -75.3551 C.3       2 UNK         0.0269 
     63 CB        -82.2160   23.5355  -74.6244 C.3       2 UNK        -0.1926 
     64 N         -81.9564   26.0300  -74.4717 N.am      2 UNK        -0.4687 
     65 C         -81.3797   26.2259  -73.2741 C.2       1 UNK         0.5165 
     66 O         -80.8778   25.3312  -72.5974 O.2       1 UNK        -0.5079 
     67 H67       -79.4420   29.4795  -74.4100 H         1 UNK         0.0900 
     68 H68       -79.8924   27.9546  -75.1837 H         1 UNK         0.0900 
     69 H69       -79.9399   29.4569  -76.0977 H         1 UNK         0.0900 
     70 H70       -83.0138   28.8104  -73.3421 H         1 UNK         0.2959 
     71 H71       -80.2906   27.9440  -72.7129 H         1 UNK         0.1079 
     72 H72       -81.2896   27.0663  -70.6291 H         1 UNK         0.0837 
     73 H73       -82.8932   27.4350  -71.2077 H         1 UNK         0.0837 
     74 H74       -80.0322   30.3047  -69.0970 H         1 UNK         0.0685 
     75 H75       -80.2995   28.6020  -68.8186 H         1 UNK         0.0685 
     76 H76       -78.4763   27.2217  -69.4392 H         1 UNK         0.1434 
     77 H77       -75.8963   28.2462  -72.6958 H         1 UNK         0.1329 
     78 H78       -79.1483   30.8398  -71.6428 H         1 UNK         0.1335 
     79 H79       -76.8990   30.0742  -74.3285 H         1 UNK         0.0680 
     80 H80       -77.8789   31.3165  -73.6020 H         1 UNK         0.0680 
     81 H81       -73.9521   29.8865  -72.4186 H         1 UNK         0.1032 
     82 H82       -74.6537   29.6458  -73.9890 H         1 UNK         0.1032 
     83 H83       -73.3989   31.9383  -74.6103 H         1 UNK         0.0461 
     84 H84       -71.4655   33.2888  -71.9516 H         1 UNK         0.3453 
     85 H85       -72.8039   33.5178  -73.0478 H         1 UNK         0.3453 
     86 H86       -72.7949   29.2410  -75.0192 H         1 UNK         0.2984 
     87 H87       -71.6825   29.4517  -77.6862 H         1 UNK         0.0554 
     88 H88       -69.3178   28.6497  -78.0008 H         1 UNK         0.0847 
     89 H89       -68.8560   29.4836  -76.5163 H         1 UNK         0.0847 
     90 H90       -69.4452   30.3971  -77.8925 H         1 UNK         0.0847 
     91 H91       -72.1506   27.5698  -76.6851 H         1 UNK         0.3141 
     92 H92       -70.4104   25.2455  -74.9648 H         1 UNK         0.0743 
     93 H93       -72.4857   26.7399  -73.2713 H         1 UNK         0.0784 
     94 H94       -72.0993   25.0266  -73.1104 H         1 UNK         0.0784 
     95 H95       -70.8825   26.2417  -72.7554 H         1 UNK         0.0784 
     96 H96       -73.2669   25.5694  -75.3484 H         1 UNK         0.3213 
     97 H97       -73.3012   25.2083  -78.8113 H         1 UNK         0.0855 
     98 H98       -73.9214   22.7923  -77.0268 H         1 UNK         0.0814 
     99 H99       -72.8280   22.7794  -78.4033 H         1 UNK         0.0814 
    100 H100      -74.5406   23.0657  -78.6554 H         1 UNK         0.0814 
    101 H101      -75.4863   24.7779  -77.1549 H         1 UNK         0.3105 
    102 H102      -76.0112   27.9618  -75.7142 H         1 UNK         0.0547 
    103 H103      -76.9727   28.2997  -77.9516 H         1 UNK         0.0837 
    104 H104      -77.4385   26.6114  -78.0643 H         1 UNK         0.0837 
    105 H105      -78.2276   27.6690  -76.8975 H         1 UNK         0.0837 
    106 H106      -77.6480   25.6876  -75.6066 H         1 UNK         0.3020 
    107 H107      -75.9014   23.8297  -73.0891 H         1 UNK         0.1245 
    108 H108      -78.6041   24.1854  -72.5993 H         1 UNK         0.0781 
    109 H109      -78.1458   25.8356  -72.8421 H         1 UNK         0.0781 
    110 H110      -75.3633   26.3557  -71.4152 H         1 UNK         0.0836 
    111 H111      -75.8215   26.4742  -69.7395 H         1 UNK         0.0836 
    112 H112      -78.2251   23.6398  -74.8979 H         1 UNK         0.3022 
    113 H113      -76.6694   21.2528  -76.9489 H         1 UNK         0.0747 
    114 H114      -78.4865   19.6789  -76.3140 H         1 UNK         0.0793 
    115 H115      -77.2530   19.7133  -75.0661 H         1 UNK         0.0793 
    116 H116      -78.7688   20.5681  -74.8161 H         1 UNK         0.0793 
    117 H117      -79.4023   22.0490  -76.7150 H         1 UNK         0.3047 
    118 H118      -79.1689   25.1151  -78.4873 H         1 UNK         0.0822 
    119 H119      -80.7424   23.9860  -80.0181 H         1 UNK         0.0807 
    120 H120      -80.2906   22.4059  -79.3768 H         1 UNK         0.0807 
    121 H121      -79.1217   23.3648  -80.2741 H         1 UNK         0.0807 
    122 H122      -81.4730   23.8190  -77.6375 H         1 UNK         0.2946 
    123 H123      -82.6716   25.0181  -76.1025 H         1 UNK         0.1144 
    124 H124      -83.1245   23.6223  -74.0284 H         1 UNK         0.0793 
    125 H125      -81.4075   23.2233  -73.9626 H         1 UNK         0.0793 
    126 H126      -82.3735   22.7250  -75.3368 H         1 UNK         0.0793 
    127 H127      -82.3637   26.8511  -74.8977 H         1 UNK         0.2896 
@<TRIPOS>BOND
     1    1    2 1    
     2    1   67 1    
     3    1   68 1    
     4    1   69 1    
     5    2    3 2    
     6    2    4 am   BACKBONE|DICT|INTERRES
     7    4    5 1    
     8    4   70 1    
     9    5    6 1    
    10    5   65 1    
    11    5   71 1    
    12    6    7 1    
    13    6   72 1    
    14    6   73 1    
    15    7    8 1    
    16    8    9 1    
    17    8   74 1    
    18    8   75 1    
    19    9   10 ar   
    20    9   14 ar   
    21   10   11 ar   
    22   10   76 1    
    23   11   12 ar   
    24   11   48 1    
    25   12   13 ar   
    26   12   77 1    
    27   13   14 ar   
    28   13   15 1    
    29   14   78 1    
    30   15   16 1    
    31   15   79 1    
    32   15   80 1    
    33   16   17 1    
    34   17   18 1    
    35   17   81 1    
    36   17   82 1    
    37   18   19 1    
    38   18   22 1    
    39   18   83 1    
    40   19   20 am   BACKBONE|DICT|INTERRES
    41   19   21 2    
    42   20   84 1    
    43   20   85 1    
    44   22   23 am   BACKBONE|DICT|INTERRES
    45   22   86 1    
    46   23   24 2    
    47   23   25 1    
    48   25   26 1    
    49   25   27 1    
    50   25   87 1    
    51   26   88 1    
    52   26   89 1    
    53   26   90 1    
    54   27   28 am   BACKBONE|DICT|INTERRES
    55   27   91 1    
    56   28   29 2    
    57   28   30 1    
    58   30   31 1    
    59   30   32 1    
    60   30   92 1    
    61   31   93 1    
    62   31   94 1    
    63   31   95 1    
    64   32   33 am   BACKBONE|DICT|INTERRES
    65   32   96 1    
    66   33   34 2    
    67   33   35 1    
    68   35   36 1    
    69   35   37 1    
    70   35   97 1    
    71   36   98 1    
    72   36   99 1    
    73   36  100 1    
    74   37   38 am   BACKBONE|DICT|INTERRES
    75   37  101 1    
    76   38   39 2    
    77   38   40 1    
    78   40   41 1    
    79   40   42 1    
    80   40  102 1    
    81   41  103 1    
    82   41  104 1    
    83   41  105 1    
    84   42   43 am   BACKBONE|DICT|INTERRES
    85   42  106 1    
    86   43   44 2    
    87   43   45 1    
    88   45   46 1    
    89   45   49 1    
    90   45  107 1    
    91   46   47 1    
    92   46  108 1    
    93   46  109 1    
    94   47   48 1    
    95   48  110 1    
    96   48  111 1    
    97   49   50 am   BACKBONE|DICT|INTERRES
    98   49  112 1    
    99   50   51 2    
   100   50   52 1    
   101   52   53 1    
   102   52   54 1    
   103   52  113 1    
   104   53  114 1    
   105   53  115 1    
   106   53  116 1    
   107   54   55 am   BACKBONE|DICT|INTERRES
   108   54  117 1    
   109   55   56 2    
   110   55   57 1    
   111   57   58 1    
   112   57   59 1    
   113   57  118 1    
   114   58  119 1    
   115   58  120 1    
   116   58  121 1    
   117   59   60 am   BACKBONE|DICT|INTERRES
   118   59  122 1    
   119   60   61 2    
   120   60   62 1    
   121   62   63 1    
   122   62   64 1    
   123   62  123 1    
   124   63  124 1    
   125   63  125 1    
   126   63  126 1    
   127   64   65 am   BACKBONE|DICT|INTERRES
   128   64  127 1    
   129   65   66 2    
@<TRIPOS>SUBSTRUCTURE
     1 UNK         1 GROUP             0       ****    0 ROOT    
