@<TRIPOS>MOLECULE
3R135
127   129    1
SMALL
USER_CHARGES


@<TRIPOS>ATOM
      1 CA        -81.8999   24.4336  -71.4720 C.3       0 UNK        -0.1998 
      2 C         -82.3917   25.6108  -72.2996 C.2       0 UNK         0.4909 
      3 O         -83.5016   25.5673  -72.8305 O.2       0 UNK        -0.5240 
      4 N         -81.5696   26.6611  -72.4180 N.am      1 UNK        -0.4739 
      5 CA        -81.8757   27.8914  -73.1674 C.3       1 UNK         0.0864 
      6 C6        -81.1529   29.1273  -72.5717 C.3       11 UNK        -0.0881 
      7 S7        -81.6058   29.3964  -70.8212 S.3       11 UNK        -0.2682 
      8 C8        -80.2162   30.4108  -70.2050 C.3       11 UNK         0.0289 
      9 C9        -78.8394   29.7577  -70.3235 C.ar      11 UNK        -0.0687 
     10 C10       -78.6656   28.3751  -70.1994 C.ar      11 UNK        -0.0823 
     11 C11       -77.4054   27.7991  -70.3742 C.ar      11 UNK        -0.0830 
     12 C12       -76.2965   28.6221  -70.5903 C.ar      11 UNK        -0.1021 
     13 C13       -76.4451   30.0112  -70.7100 C.ar      11 UNK        -0.0753 
     14 C14       -77.7235   30.5623  -70.5741 C.ar      11 UNK        -0.0933 
     15 C15       -75.2851   30.9683  -71.0152 C.3       11 UNK         0.0166 
     16 S16       -73.6254   30.2315  -71.2458 S.3       11 UNK        -0.2615 
     17 C17       -73.8581   29.2224  -72.7515 C.3       11 UNK        -0.0865 
     18 CA        -73.3080   29.8210  -74.0711 C.3       10 UNK         0.0862 
     19 C         -74.1637   31.0041  -74.5994 C.2       10 UNK         0.5551 
     20 N         -75.3774   30.7205  -75.0478 N.am      10 UNK        -0.7319 
     21 O         -73.7479   32.1614  -74.6034 O.2       10 UNK        -0.5018 
     22 N         -71.8812   30.1555  -73.9630 N.am      10 UNK        -0.4509 
     23 C         -70.9426   30.0766  -74.9173 C.2       10 UNK         0.4899 
     24 O         -69.8302   30.5761  -74.7492 O.2       10 UNK        -0.4839 
     25 CA        -71.2352   29.3059  -76.2311 C.3       9 UNK         0.0222 
     26 CB        -70.0982   29.4408  -77.2655 C.3       9 UNK        -0.1966 
     27 N         -71.5409   27.8839  -76.0135 N.am      9 UNK        -0.4218 
     28 C         -70.8323   26.9899  -75.3033 C.2       9 UNK         0.5020 
     29 O         -69.7447   27.2279  -74.7764 O.2       9 UNK        -0.5274 
     30 CA        -71.4401   25.5852  -75.1218 C.3       8 UNK         0.0270 
     31 CB        -72.0935   25.4700  -73.7341 C.3       8 UNK        -0.1976 
     32 N         -72.4192   25.2059  -76.1450 N.am      8 UNK        -0.4313 
     33 C         -72.1360   25.0167  -77.4415 C.2       8 UNK         0.5041 
     34 O         -71.0013   25.1000  -77.9132 O.2       8 UNK        -0.5577 
     35 CA        -73.3133   24.6980  -78.3792 C.3       7 UNK         0.0284 
     36 CB        -73.5446   23.1804  -78.4502 C.3       7 UNK        -0.1958 
     37 N         -74.5711   25.3620  -78.0221 N.am      7 UNK        -0.4454 
     38 C         -74.7659   26.6875  -77.9501 C.2       7 UNK         0.5089 
     39 O         -73.8782   27.5261  -78.1072 O.2       7 UNK        -0.5125 
     40 CA        -76.1877   27.1472  -77.5937 C.3       6 UNK         0.0408 
     41 CB        -77.1616   26.9431  -78.7662 C.3       6 UNK        -0.1791 
     42 N         -76.6602   26.4323  -76.4073 N.am      6 UNK        -0.4762 
     43 C         -76.3774   26.8244  -75.1569 C.2       6 UNK         0.5007 
     44 O         -75.8473   27.9033  -74.9028 O.2       6 UNK        -0.5032 
     45 CA        -76.7191   25.8756  -73.9895 C.3       5 UNK         0.0783 
     46 C46       -77.9200   26.4244  -73.1872 C.3       11 UNK        -0.0857 
     47 S47       -78.2765   25.4712  -71.6687 S.3       11 UNK        -0.2512 
     48 C48       -77.2467   26.2836  -70.3916 C.3       11 UNK         0.0225 
     49 N         -76.9204   24.4925  -74.4324 N.am      5 UNK        -0.4615 
     50 C         -75.9274   23.6780  -74.8154 C.2       4 UNK         0.5053 
     51 O         -74.7435   24.0117  -74.8360 O.2       4 UNK        -0.5105 
     52 CA        -76.3240   22.2815  -75.3248 C.3       4 UNK         0.0263 
     53 CB        -76.4772   21.3045  -74.1491 C.3       4 UNK        -0.1981 
     54 N         -77.5530   22.2865  -76.1231 N.am      4 UNK        -0.4224 
     55 C         -77.7381   23.0047  -77.2393 C.2       3 UNK         0.4895 
     56 O         -76.8655   23.7088  -77.7481 O.2       3 UNK        -0.5091 
     57 CA        -79.1415   22.9990  -77.8678 C.3       3 UNK         0.0250 
     58 CB        -80.0299   21.8162  -77.4176 C.3       3 UNK        -0.1996 
     59 N         -79.8286   24.2787  -77.6463 N.am      3 UNK        -0.4254 
     60 C         -80.1149   24.8449  -76.4636 C.2       2 UNK         0.5004 
     61 O         -79.7944   24.3612  -75.3721 O.2       2 UNK        -0.5226 
     62 CA        -80.8951   26.1689  -76.5041 C.3       2 UNK         0.0269 
     63 CB        -82.2062   26.0365  -77.3088 C.3       2 UNK        -0.1926 
     64 N         -81.1892   26.5578  -75.1283 N.am      2 UNK        -0.4687 
     65 C         -81.6065   27.7491  -74.6853 C.2       1 UNK         0.5165 
     66 O         -81.7833   28.7176  -75.4257 O.2       1 UNK        -0.5079 
     67 H67       -82.7167   24.0165  -70.8834 H         1 UNK         0.0900 
     68 H68       -81.1087   24.7283  -70.7830 H         1 UNK         0.0900 
     69 H69       -81.5134   23.6514  -72.1249 H         1 UNK         0.0900 
     70 H70       -80.6648   26.6352  -71.9685 H         1 UNK         0.2959 
     71 H71       -82.9487   28.0790  -73.0829 H         1 UNK         0.1079 
     72 H72       -80.0719   29.0126  -72.6651 H         1 UNK         0.0837 
     73 H73       -81.4128   30.0334  -73.1224 H         1 UNK         0.0837 
     74 H74       -80.3973   30.6462  -69.1556 H         1 UNK         0.0685 
     75 H75       -80.2296   31.3607  -70.7419 H         1 UNK         0.0685 
     76 H76       -79.5167   27.7356  -70.0130 H         1 UNK         0.1434 
     77 H77       -75.3248   28.1636  -70.6951 H         1 UNK         0.1329 
     78 H78       -77.8513   31.6320  -70.6731 H         1 UNK         0.1335 
     79 H79       -75.2147   31.6895  -70.1997 H         1 UNK         0.0680 
     80 H80       -75.5302   31.5432  -71.9094 H         1 UNK         0.0680 
     81 H81       -73.3718   28.2632  -72.5717 H         1 UNK         0.1032 
     82 H82       -74.9146   28.9871  -72.8653 H         1 UNK         0.1032 
     83 H83       -73.4316   29.0355  -74.8123 H         1 UNK         0.0461 
     84 H84       -75.9676   31.4578  -75.3977 H         1 UNK         0.3453 
     85 H85       -75.7028   29.7568  -75.0466 H         1 UNK         0.3453 
     86 H86       -71.6467   30.6528  -73.1166 H         1 UNK         0.2984 
     87 H87       -72.1249   29.7555  -76.6740 H         1 UNK         0.0554 
     88 H88       -69.8991   30.4885  -77.4945 H         1 UNK         0.0847 
     89 H89       -70.3566   28.9479  -78.2028 H         1 UNK         0.0847 
     90 H90       -69.1672   29.0027  -76.9039 H         1 UNK         0.0847 
     91 H91       -72.4009   27.5618  -76.4422 H         1 UNK         0.3141 
     92 H92       -70.6159   24.8705  -75.1705 H         1 UNK         0.0743 
     93 H93       -71.4072   25.7829  -72.9458 H         1 UNK         0.0784 
     94 H94       -72.9870   26.0902  -73.6579 H         1 UNK         0.0784 
     95 H95       -72.3818   24.4411  -73.5180 H         1 UNK         0.0784 
     96 H96       -73.3635   25.0119  -75.8215 H         1 UNK         0.3213 
     97 H97       -73.0373   25.0482  -79.3759 H         1 UNK         0.0855 
     98 H98       -73.8341   22.7737  -77.4810 H         1 UNK         0.0814 
     99 H99       -72.6384   22.6611  -78.7649 H         1 UNK         0.0814 
    100 H100      -74.3276   22.9297  -79.1661 H         1 UNK         0.0814 
    101 H101      -75.3754   24.7526  -77.8822 H         1 UNK         0.3105 
    102 H102      -76.1527   28.2193  -77.3873 H         1 UNK         0.0547 
    103 H103      -76.8298   27.5003  -79.6432 H         1 UNK         0.0837 
    104 H104      -77.2457   25.8983  -79.0629 H         1 UNK         0.0837 
    105 H105      -78.1598   27.3016  -78.5165 H         1 UNK         0.0837 
    106 H106      -77.0456   25.5079  -76.5537 H         1 UNK         0.3020 
    107 H107      -75.8492   25.8890  -73.3285 H         1 UNK         0.1245 
    108 H108      -78.8156   26.4032  -73.8061 H         1 UNK         0.0781 
    109 H109      -77.7707   27.4750  -72.9351 H         1 UNK         0.0781 
    110 H110      -77.5160   25.8849  -69.4128 H         1 UNK         0.0836 
    111 H111      -76.2054   26.0046  -70.5596 H         1 UNK         0.0836 
    112 H112      -77.8820   24.1746  -74.4941 H         1 UNK         0.3022 
    113 H113      -75.5169   21.9215  -75.9652 H         1 UNK         0.0747 
    114 H114      -75.5652   21.2686  -73.5514 H         1 UNK         0.0793 
    115 H115      -76.6738   20.2905  -74.4979 H         1 UNK         0.0793 
    116 H116      -77.2914   21.5961  -73.4841 H         1 UNK         0.0793 
    117 H117      -78.3393   21.7714  -75.7545 H         1 UNK         0.3047 
    118 H118      -78.9895   22.9056  -78.9443 H         1 UNK         0.0822 
    119 H119      -80.9643   21.7993  -77.9788 H         1 UNK         0.0807 
    120 H120      -80.2889   21.8643  -76.3594 H         1 UNK         0.0807 
    121 H121      -79.5352   20.8606  -77.5971 H         1 UNK         0.0807 
    122 H122      -80.1067   24.7657  -78.4867 H         1 UNK         0.2946 
    123 H123      -80.2545   26.9290  -76.9563 H         1 UNK         0.1144 
    124 H124      -82.0149   25.7876  -78.3529 H         1 UNK         0.0793 
    125 H125      -82.7728   26.9675  -77.3096 H         1 UNK         0.0793 
    126 H126      -82.8500   25.2575  -76.8982 H         1 UNK         0.0793 
    127 H127      -81.0243   25.8179  -74.4560 H         1 UNK         0.2896 
@<TRIPOS>BOND
     1    1    2 1    
     2    1   67 1    
     3    1   68 1    
     4    1   69 1    
     5    2    3 2    
     6    2    4 am   BACKBONE|DICT|INTERRES
     7    4    5 1    
     8    4   70 1    
     9    5    6 1    
    10    5   65 1    
    11    5   71 1    
    12    6    7 1    
    13    6   72 1    
    14    6   73 1    
    15    7    8 1    
    16    8    9 1    
    17    8   74 1    
    18    8   75 1    
    19    9   10 ar   
    20    9   14 ar   
    21   10   11 ar   
    22   10   76 1    
    23   11   12 ar   
    24   11   48 1    
    25   12   13 ar   
    26   12   77 1    
    27   13   14 ar   
    28   13   15 1    
    29   14   78 1    
    30   15   16 1    
    31   15   79 1    
    32   15   80 1    
    33   16   17 1    
    34   17   18 1    
    35   17   81 1    
    36   17   82 1    
    37   18   19 1    
    38   18   22 1    
    39   18   83 1    
    40   19   20 am   BACKBONE|DICT|INTERRES
    41   19   21 2    
    42   20   84 1    
    43   20   85 1    
    44   22   23 am   BACKBONE|DICT|INTERRES
    45   22   86 1    
    46   23   24 2    
    47   23   25 1    
    48   25   26 1    
    49   25   27 1    
    50   25   87 1    
    51   26   88 1    
    52   26   89 1    
    53   26   90 1    
    54   27   28 am   BACKBONE|DICT|INTERRES
    55   27   91 1    
    56   28   29 2    
    57   28   30 1    
    58   30   31 1    
    59   30   32 1    
    60   30   92 1    
    61   31   93 1    
    62   31   94 1    
    63   31   95 1    
    64   32   33 am   BACKBONE|DICT|INTERRES
    65   32   96 1    
    66   33   34 2    
    67   33   35 1    
    68   35   36 1    
    69   35   37 1    
    70   35   97 1    
    71   36   98 1    
    72   36   99 1    
    73   36  100 1    
    74   37   38 am   BACKBONE|DICT|INTERRES
    75   37  101 1    
    76   38   39 2    
    77   38   40 1    
    78   40   41 1    
    79   40   42 1    
    80   40  102 1    
    81   41  103 1    
    82   41  104 1    
    83   41  105 1    
    84   42   43 am   BACKBONE|DICT|INTERRES
    85   42  106 1    
    86   43   44 2    
    87   43   45 1    
    88   45   46 1    
    89   45   49 1    
    90   45  107 1    
    91   46   47 1    
    92   46  108 1    
    93   46  109 1    
    94   47   48 1    
    95   48  110 1    
    96   48  111 1    
    97   49   50 am   BACKBONE|DICT|INTERRES
    98   49  112 1    
    99   50   51 2    
   100   50   52 1    
   101   52   53 1    
   102   52   54 1    
   103   52  113 1    
   104   53  114 1    
   105   53  115 1    
   106   53  116 1    
   107   54   55 am   BACKBONE|DICT|INTERRES
   108   54  117 1    
   109   55   56 2    
   110   55   57 1    
   111   57   58 1    
   112   57   59 1    
   113   57  118 1    
   114   58  119 1    
   115   58  120 1    
   116   58  121 1    
   117   59   60 am   BACKBONE|DICT|INTERRES
   118   59  122 1    
   119   60   61 2    
   120   60   62 1    
   121   62   63 1    
   122   62   64 1    
   123   62  123 1    
   124   63  124 1    
   125   63  125 1    
   126   63  126 1    
   127   64   65 am   BACKBONE|DICT|INTERRES
   128   64  127 1    
   129   65   66 2    
@<TRIPOS>SUBSTRUCTURE
     1 UNK         1 GROUP             0       ****    0 ROOT    
