@<TRIPOS>MOLECULE
3R135
127   129    1
SMALL
USER_CHARGES


@<TRIPOS>ATOM
      1 CA        -80.2793   28.1703  -70.2642 C.3       0 UNK        -0.1998 
      2 C         -81.2075   28.0598  -71.4637 C.2       0 UNK         0.4909 
      3 O         -82.3931   27.7702  -71.3004 O.2       0 UNK        -0.5240 
      4 N         -80.6740   28.2966  -72.6684 N.am      1 UNK        -0.4739 
      5 CA        -81.4057   28.2669  -73.9429 C.3       1 UNK         0.0864 
      6 C6        -80.5966   28.9089  -75.0984 C.3       11 UNK        -0.0881 
      7 S7        -80.0883   30.6303  -74.7589 S.3       11 UNK        -0.2682 
      8 C8        -78.2711   30.5134  -74.8087 C.3       11 UNK         0.0289 
      9 C9        -77.6926   30.0329  -73.4855 C.ar      11 UNK        -0.0687 
     10 C10       -77.5671   28.6669  -73.2200 C.ar      11 UNK        -0.0823 
     11 C11       -77.0196   28.2131  -72.0107 C.ar      11 UNK        -0.0830 
     12 C12       -76.5761   29.1571  -71.0806 C.ar      11 UNK        -0.1021 
     13 C13       -76.6836   30.5264  -71.3378 C.ar      11 UNK        -0.0753 
     14 C14       -77.2570   30.9590  -72.5355 C.ar      11 UNK        -0.0933 
     15 C15       -76.1589   31.5376  -70.3294 C.3       11 UNK         0.0166 
     16 S16       -74.6580   32.3822  -70.9268 S.3       11 UNK        -0.2615 
     17 C17       -73.5333   30.9817  -71.2669 C.3       11 UNK        -0.0865 
     18 CA        -73.3606   30.7178  -72.7951 C.3       10 UNK         0.0862 
     19 C         -72.3547   31.6659  -73.5086 C.2       10 UNK         0.5551 
     20 N         -72.1897   31.5270  -74.8180 N.am      10 UNK        -0.7319 
     21 O         -71.7172   32.5183  -72.8941 O.2       10 UNK        -0.5018 
     22 N         -73.1086   29.3100  -73.1405 N.am      10 UNK        -0.4509 
     23 C         -72.1651   28.5183  -72.6109 C.2       10 UNK         0.4899 
     24 O         -71.4732   28.8149  -71.6368 O.2       10 UNK        -0.4839 
     25 CA        -71.9348   27.1610  -73.3027 C.3       9 UNK         0.0222 
     26 CB        -72.9451   26.1182  -72.8034 C.3       9 UNK        -0.1966 
     27 N         -71.9861   27.2491  -74.7665 N.am      9 UNK        -0.4218 
     28 C         -71.1128   27.9562  -75.5013 C.2       9 UNK         0.5020 
     29 O         -70.1209   28.5145  -75.0298 O.2       9 UNK        -0.5274 
     30 CA        -71.3677   28.0769  -77.0137 C.3       8 UNK         0.0270 
     31 CB        -70.5280   27.0410  -77.7791 C.3       8 UNK        -0.1976 
     32 N         -72.7647   27.9518  -77.4337 N.am      8 UNK        -0.4313 
     33 C         -73.8107   28.6860  -77.0366 C.2       8 UNK         0.5041 
     34 O         -73.7448   29.5529  -76.1642 O.2       8 UNK        -0.5577 
     35 CA        -75.1681   28.3970  -77.7122 C.3       7 UNK         0.0284 
     36 CB        -75.3073   29.1849  -79.0282 C.3       7 UNK        -0.1958 
     37 N         -75.4634   26.9668  -77.9036 N.am      7 UNK        -0.4454 
     38 C         -74.8132   26.0502  -78.6398 C.2       7 UNK         0.5089 
     39 O         -73.8972   26.3250  -79.4166 O.2       7 UNK        -0.5125 
     40 CA        -75.1997   24.5731  -78.4028 C.3       6 UNK         0.0408 
     41 CB        -74.0379   23.6083  -78.7171 C.3       6 UNK        -0.1791 
     42 N         -75.7196   24.3120  -77.0521 N.am      6 UNK        -0.4762 
     43 C         -75.1256   24.5898  -75.8769 C.2       6 UNK         0.5007 
     44 O         -74.0070   25.0957  -75.7665 O.2       6 UNK        -0.5032 
     45 CA        -75.9681   24.3404  -74.6116 C.3       5 UNK         0.0783 
     46 C46       -76.7161   25.6472  -74.2591 C.3       11 UNK        -0.0857 
     47 S47       -77.7194   25.5398  -72.7396 S.3       11 UNK        -0.2512 
     48 C48       -76.8678   26.7313  -71.6497 C.3       11 UNK         0.0225 
     49 N         -76.8846   23.2075  -74.7786 N.am      5 UNK        -0.4615 
     50 C         -76.4958   21.9246  -74.8250 C.2       4 UNK         0.5053 
     51 O         -75.3267   21.5661  -74.6816 O.2       4 UNK        -0.5105 
     52 CA        -77.5750   20.8513  -75.0656 C.3       4 UNK         0.0263 
     53 CB        -77.9259   20.1445  -73.7459 C.3       4 UNK        -0.1981 
     54 N         -78.8069   21.3634  -75.6697 N.am      4 UNK        -0.4224 
     55 C         -78.9212   21.8595  -76.9105 C.2       3 UNK         0.4895 
     56 O         -77.9945   21.9100  -77.7193 O.2       3 UNK        -0.5091 
     57 CA        -80.2955   22.4413  -77.2940 C.3       3 UNK         0.0250 
     58 CB        -81.1577   21.3748  -77.9882 C.3       3 UNK        -0.1996 
     59 N         -81.0322   23.0009  -76.1519 N.am      3 UNK        -0.4254 
     60 C         -80.6056   24.0380  -75.4179 C.2       2 UNK         0.5004 
     61 O         -79.5517   24.6379  -75.6412 O.2       2 UNK        -0.5226 
     62 CA        -81.4536   24.4112  -74.1933 C.3       2 UNK         0.0269 
     63 CB        -81.0902   23.5111  -73.0001 C.3       2 UNK        -0.1926 
     64 N         -81.2235   25.8060  -73.8179 N.am      2 UNK        -0.4687 
     65 C         -81.8676   26.8508  -74.3550 C.2       1 UNK         0.5165 
     66 O         -82.7928   26.7334  -75.1607 O.2       1 UNK        -0.5079 
     67 H67       -80.8190   28.5557  -69.3996 H         1 UNK         0.0900 
     68 H68       -79.4476   28.8450  -70.4650 H         1 UNK         0.0900 
     69 H69       -79.8766   27.1908  -70.0084 H         1 UNK         0.0900 
     70 H70       -79.7024   28.5692  -72.7310 H         1 UNK         0.2959 
     71 H71       -82.3145   28.8570  -73.8045 H         1 UNK         0.1079 
     72 H72       -79.7251   28.3001  -75.3429 H         1 UNK         0.0837 
     73 H73       -81.1999   28.9313  -76.0084 H         1 UNK         0.0837 
     74 H74       -77.9568   29.8603  -75.6241 H         1 UNK         0.0685 
     75 H75       -77.8695   31.4993  -75.0479 H         1 UNK         0.0685 
     76 H76       -77.9087   27.9695  -73.9670 H         1 UNK         0.1434 
     77 H77       -76.1359   28.8226  -70.1509 H         1 UNK         0.1329 
     78 H78       -77.3396   32.0185  -72.7363 H         1 UNK         0.1335 
     79 H79       -76.9302   32.2829  -70.1300 H         1 UNK         0.0680 
     80 H80       -75.9415   31.0580  -69.3737 H         1 UNK         0.0680 
     81 H81       -73.9229   30.0926  -70.7713 H         1 UNK         0.1032 
     82 H82       -72.5708   31.1730  -70.7895 H         1 UNK         0.1032 
     83 H83       -74.3235   30.9274  -73.2630 H         1 UNK         0.0461 
     84 H84       -71.5398   32.1238  -75.3032 H         1 UNK         0.3453 
     85 H85       -72.7273   30.8308  -75.3317 H         1 UNK         0.3453 
     86 H86       -73.5632   29.0010  -73.9902 H         1 UNK         0.2984 
     87 H87       -70.9356   26.8161  -73.0279 H         1 UNK         0.0554 
     88 H88       -72.7324   25.1308  -73.2138 H         1 UNK         0.0847 
     89 H89       -73.9619   26.3866  -73.0823 H         1 UNK         0.0847 
     90 H90       -72.9148   26.0316  -71.7164 H         1 UNK         0.0847 
     91 H91       -72.7377   26.7571  -75.2378 H         1 UNK         0.3141 
     92 H92       -71.0367   29.0737  -77.3121 H         1 UNK         0.0743 
     93 H93       -70.8468   26.0220  -77.5546 H         1 UNK         0.0784 
     94 H94       -70.6038   27.1861  -78.8571 H         1 UNK         0.0784 
     95 H95       -69.4720   27.1194  -77.5165 H         1 UNK         0.0784 
     96 H96       -72.9549   27.2760  -78.1711 H         1 UNK         0.3213 
     97 H97       -75.9338   28.7670  -77.0283 H         1 UNK         0.0855 
     98 H98       -75.1790   30.2542  -78.8546 H         1 UNK         0.0814 
     99 H99       -76.2931   29.0448  -79.4714 H         1 UNK         0.0814 
    100 H100      -74.5623   28.8867  -79.7663 H         1 UNK         0.0814 
    101 H101      -76.1905   26.6043  -77.3041 H         1 UNK         0.3105 
    102 H102      -76.0141   24.3537  -79.0947 H         1 UNK         0.0547 
    103 H103      -73.7242   23.6952  -79.7580 H         1 UNK         0.0837 
    104 H104      -73.1651   23.8121  -78.0957 H         1 UNK         0.0837 
    105 H105      -74.3302   22.5708  -78.5547 H         1 UNK         0.0837 
    106 H106      -76.6362   23.8831  -77.0190 H         1 UNK         0.3020 
    107 H107      -75.2760   24.1042  -73.8001 H         1 UNK         0.1245 
    108 H108      -77.3847   25.9334  -75.0725 H         1 UNK         0.0781 
    109 H109      -76.0076   26.4710  -74.1601 H         1 UNK         0.0781 
    110 H110      -75.8085   26.4789  -71.6032 H         1 UNK         0.0836 
    111 H111      -77.2571   26.5806  -70.6418 H         1 UNK         0.0836 
    112 H112      -77.8617   23.4433  -74.9031 H         1 UNK         0.3022 
    113 H113      -77.1501   20.1132  -75.7492 H         1 UNK         0.0747 
    114 H114      -78.6263   19.3247  -73.9073 H         1 UNK         0.0793 
    115 H115      -77.0351   19.7189  -73.2815 H         1 UNK         0.0793 
    116 H116      -78.3712   20.8323  -73.0255 H         1 UNK         0.0793 
    117 H117      -79.6289   21.3640  -75.0845 H         1 UNK         0.3047 
    118 H118      -80.1174   23.2527  -78.0033 H         1 UNK         0.0822 
    119 H119      -82.0981   21.7950  -78.3458 H         1 UNK         0.0807 
    120 H120      -81.3919   20.5448  -77.3203 H         1 UNK         0.0807 
    121 H121      -80.6411   20.9596  -78.8549 H         1 UNK         0.0807 
    122 H122      -81.9034   22.5504  -75.9087 H         1 UNK         0.2946 
    123 H123      -82.5095   24.2688  -74.4357 H         1 UNK         0.1144 
    124 H124      -81.3099   22.4646  -73.2144 H         1 UNK         0.0793 
    125 H125      -81.6608   23.7832  -72.1118 H         1 UNK         0.0793 
    126 H126      -80.0310   23.5765  -72.7487 H         1 UNK         0.0793 
    127 H127      -80.4368   25.9883  -73.2109 H         1 UNK         0.2896 
@<TRIPOS>BOND
     1    1    2 1    
     2    1   67 1    
     3    1   68 1    
     4    1   69 1    
     5    2    3 2    
     6    2    4 am   BACKBONE|DICT|INTERRES
     7    4    5 1    
     8    4   70 1    
     9    5    6 1    
    10    5   65 1    
    11    5   71 1    
    12    6    7 1    
    13    6   72 1    
    14    6   73 1    
    15    7    8 1    
    16    8    9 1    
    17    8   74 1    
    18    8   75 1    
    19    9   10 ar   
    20    9   14 ar   
    21   10   11 ar   
    22   10   76 1    
    23   11   12 ar   
    24   11   48 1    
    25   12   13 ar   
    26   12   77 1    
    27   13   14 ar   
    28   13   15 1    
    29   14   78 1    
    30   15   16 1    
    31   15   79 1    
    32   15   80 1    
    33   16   17 1    
    34   17   18 1    
    35   17   81 1    
    36   17   82 1    
    37   18   19 1    
    38   18   22 1    
    39   18   83 1    
    40   19   20 am   BACKBONE|DICT|INTERRES
    41   19   21 2    
    42   20   84 1    
    43   20   85 1    
    44   22   23 am   BACKBONE|DICT|INTERRES
    45   22   86 1    
    46   23   24 2    
    47   23   25 1    
    48   25   26 1    
    49   25   27 1    
    50   25   87 1    
    51   26   88 1    
    52   26   89 1    
    53   26   90 1    
    54   27   28 am   BACKBONE|DICT|INTERRES
    55   27   91 1    
    56   28   29 2    
    57   28   30 1    
    58   30   31 1    
    59   30   32 1    
    60   30   92 1    
    61   31   93 1    
    62   31   94 1    
    63   31   95 1    
    64   32   33 am   BACKBONE|DICT|INTERRES
    65   32   96 1    
    66   33   34 2    
    67   33   35 1    
    68   35   36 1    
    69   35   37 1    
    70   35   97 1    
    71   36   98 1    
    72   36   99 1    
    73   36  100 1    
    74   37   38 am   BACKBONE|DICT|INTERRES
    75   37  101 1    
    76   38   39 2    
    77   38   40 1    
    78   40   41 1    
    79   40   42 1    
    80   40  102 1    
    81   41  103 1    
    82   41  104 1    
    83   41  105 1    
    84   42   43 am   BACKBONE|DICT|INTERRES
    85   42  106 1    
    86   43   44 2    
    87   43   45 1    
    88   45   46 1    
    89   45   49 1    
    90   45  107 1    
    91   46   47 1    
    92   46  108 1    
    93   46  109 1    
    94   47   48 1    
    95   48  110 1    
    96   48  111 1    
    97   49   50 am   BACKBONE|DICT|INTERRES
    98   49  112 1    
    99   50   51 2    
   100   50   52 1    
   101   52   53 1    
   102   52   54 1    
   103   52  113 1    
   104   53  114 1    
   105   53  115 1    
   106   53  116 1    
   107   54   55 am   BACKBONE|DICT|INTERRES
   108   54  117 1    
   109   55   56 2    
   110   55   57 1    
   111   57   58 1    
   112   57   59 1    
   113   57  118 1    
   114   58  119 1    
   115   58  120 1    
   116   58  121 1    
   117   59   60 am   BACKBONE|DICT|INTERRES
   118   59  122 1    
   119   60   61 2    
   120   60   62 1    
   121   62   63 1    
   122   62   64 1    
   123   62  123 1    
   124   63  124 1    
   125   63  125 1    
   126   63  126 1    
   127   64   65 am   BACKBONE|DICT|INTERRES
   128   64  127 1    
   129   65   66 2    
@<TRIPOS>SUBSTRUCTURE
     1 UNK         1 GROUP             0       ****    0 ROOT    
