@<TRIPOS>MOLECULE
3R135
127   129    1
SMALL
USER_CHARGES


@<TRIPOS>ATOM
      1 CA        -76.8466   27.9319  -71.1530 C.3       0 UNK        -0.1998 
      2 C         -78.3020   27.8220  -70.7315 C.2       0 UNK         0.4909 
      3 O         -78.5724   27.4469  -69.5904 O.2       0 UNK        -0.5240 
      4 N         -79.2465   28.1245  -71.6364 N.am      1 UNK        -0.4739 
      5 CA        -80.6910   27.9947  -71.3839 C.3       1 UNK         0.0864 
      6 C6        -81.5374   28.9482  -72.2728 C.3       11 UNK        -0.0881 
      7 S7        -81.7932   28.4160  -74.0054 S.3       11 UNK        -0.2682 
      8 C8        -80.9157   29.7067  -74.9425 C.3       11 UNK         0.0289 
      9 C9        -79.4065   29.5697  -74.8204 C.ar      11 UNK        -0.0687 
     10 C10       -78.7840   28.3775  -75.1984 C.ar      11 UNK        -0.0823 
     11 C11       -77.4030   28.2254  -75.0721 C.ar      11 UNK        -0.0830 
     12 C12       -76.6320   29.2977  -74.6170 C.ar      11 UNK        -0.1021 
     13 C13       -77.2418   30.5002  -74.2453 C.ar      11 UNK        -0.0753 
     14 C14       -78.6308   30.6295  -74.3404 C.ar      11 UNK        -0.0933 
     15 C15       -76.3909   31.6507  -73.7359 C.3       11 UNK         0.0166 
     16 S16       -75.9221   31.3793  -72.0013 S.3       11 UNK        -0.2615 
     17 C17       -74.5034   32.5160  -71.8266 C.3       11 UNK        -0.0865 
     18 CA        -73.2044   32.0145  -72.5176 C.3       10 UNK         0.0862 
     19 C         -72.0144   32.9584  -72.1917 C.2       10 UNK         0.5551 
     20 N         -71.8279   34.0132  -72.9733 N.am      10 UNK        -0.7319 
     21 O         -71.2930   32.7690  -71.2138 O.2       10 UNK        -0.5018 
     22 N         -72.9279   30.6041  -72.2084 N.am      10 UNK        -0.4509 
     23 C         -72.0155   29.8400  -72.8198 C.2       10 UNK         0.4899 
     24 O         -71.2652   30.2501  -73.7086 O.2       10 UNK        -0.4839 
     25 CA        -71.9036   28.3739  -72.3484 C.3       9 UNK         0.0222 
     26 CB        -73.1788   27.8366  -71.6536 C.3       9 UNK        -0.1966 
     27 N         -71.4811   27.4764  -73.4321 N.am      9 UNK        -0.4218 
     28 C         -72.1587   27.1913  -74.5543 C.2       9 UNK         0.5020 
     29 O         -73.2862   27.6180  -74.8109 O.2       9 UNK        -0.5274 
     30 CA        -71.4594   26.2232  -75.5255 C.3       8 UNK         0.0270 
     31 CB        -71.4810   24.7872  -74.9717 C.3       8 UNK        -0.1976 
     32 N         -72.0727   26.2368  -76.8581 N.am      8 UNK        -0.4313 
     33 C         -71.8731   27.2040  -77.7662 C.2       8 UNK         0.5041 
     34 O         -71.1209   28.1620  -77.5762 O.2       8 UNK        -0.5577 
     35 CA        -72.5793   27.0902  -79.1321 C.3       7 UNK         0.0284 
     36 CB        -71.5521   26.8184  -80.2453 C.3       7 UNK        -0.1958 
     37 N         -73.6053   26.0474  -79.1829 N.am      7 UNK        -0.4454 
     38 C         -74.8907   26.2172  -78.8484 C.2       7 UNK         0.5089 
     39 O         -75.3635   27.2867  -78.4646 O.2       7 UNK        -0.5125 
     40 CA        -75.8132   24.9840  -78.9532 C.3       6 UNK         0.0408 
     41 CB        -75.2948   23.8910  -79.9145 C.3       6 UNK        -0.1791 
     42 N         -76.1135   24.4048  -77.6403 N.am      6 UNK        -0.4762 
     43 C         -75.2251   24.0006  -76.7163 C.2       6 UNK         0.5007 
     44 O         -74.0054   24.0474  -76.8800 O.2       6 UNK        -0.5032 
     45 CA        -75.7753   23.4384  -75.3873 C.3       5 UNK         0.0783 
     46 C46       -75.7358   24.5067  -74.2590 C.3       11 UNK        -0.0857 
     47 S47       -77.1809   25.6274  -74.1799 S.3       11 UNK        -0.2512 
     48 C48       -76.7542   26.8969  -75.4144 C.3       11 UNK         0.0225 
     49 N         -77.0998   22.8283  -75.5234 N.am      5 UNK        -0.4615 
     50 C         -77.4069   21.7705  -76.2854 C.2       4 UNK         0.5053 
     51 O         -76.5666   21.0739  -76.8545 O.2       4 UNK        -0.5105 
     52 CA        -78.9023   21.4423  -76.4646 C.3       4 UNK         0.0263 
     53 CB        -79.2661   20.1609  -75.6971 C.3       4 UNK        -0.1981 
     54 N         -79.8162   22.5136  -76.0510 N.am      4 UNK        -0.4224 
     55 C         -79.9075   23.7437  -76.5740 C.2       3 UNK         0.4895 
     56 O         -79.2045   24.1448  -77.5023 O.2       3 UNK        -0.5091 
     57 CA        -80.9075   24.7087  -75.9093 C.3       3 UNK         0.0250 
     58 CB        -82.3563   24.4001  -76.3330 C.3       3 UNK        -0.1996 
     59 N         -80.7711   24.7926  -74.4454 N.am      3 UNK        -0.4254 
     60 C         -80.9944   23.8484  -73.5158 C.2       2 UNK         0.5004 
     61 O         -81.4256   22.7235  -73.7720 O.2       2 UNK        -0.5226 
     62 CA        -80.6236   24.1840  -72.0617 C.3       2 UNK         0.0269 
     63 CB        -79.3972   23.3623  -71.6273 C.3       2 UNK        -0.1926 
     64 N         -80.3204   25.6044  -71.8773 N.am      2 UNK        -0.4687 
     65 C         -81.1850   26.5278  -71.4326 C.2       1 UNK         0.5165 
     66 O         -82.3353   26.2650  -71.0779 O.2       1 UNK        -0.5079 
     67 H67       -76.7477   28.2762  -72.1784 H         1 UNK         0.0900 
     68 H68       -76.3584   26.9607  -71.0767 H         1 UNK         0.0900 
     69 H69       -76.3190   28.6330  -70.5073 H         1 UNK         0.0900 
     70 H70       -78.9825   28.4395  -72.5615 H         1 UNK         0.2959 
     71 H71       -80.8619   28.3162  -70.3536 H         1 UNK         0.1079 
     72 H72       -82.5288   29.0593  -71.8299 H         1 UNK         0.0837 
     73 H73       -81.1062   29.9504  -72.2539 H         1 UNK         0.0837 
     74 H74       -81.1905   29.6236  -75.9948 H         1 UNK         0.0685 
     75 H75       -81.2547   30.6899  -74.6122 H         1 UNK         0.0685 
     76 H76       -79.3795   27.5555  -75.5684 H         1 UNK         0.1434 
     77 H77       -75.5589   29.1889  -74.5248 H         1 UNK         0.1329 
     78 H78       -79.1048   31.5560  -74.0462 H         1 UNK         0.1335 
     79 H79       -75.5012   31.7341  -74.3601 H         1 UNK         0.0680 
     80 H80       -76.9222   32.5996  -73.8237 H         1 UNK         0.0680 
     81 H81       -74.7886   33.4959  -72.2141 H         1 UNK         0.1032 
     82 H82       -74.3316   32.6563  -70.7574 H         1 UNK         0.1032 
     83 H83       -73.3613   32.0609  -73.5966 H         1 UNK         0.0461 
     84 H84       -72.4190   34.1832  -73.7721 H         1 UNK         0.3453 
     85 H85       -71.0713   34.6471  -72.7680 H         1 UNK         0.3453 
     86 H86       -73.4994   30.1967  -71.4843 H         1 UNK         0.2984 
     87 H87       -71.0974   28.3550  -71.6138 H         1 UNK         0.0554 
     88 H88       -74.0621   27.9455  -72.2845 H         1 UNK         0.0847 
     89 H89       -73.3748   28.3578  -70.7161 H         1 UNK         0.0847 
     90 H90       -73.0784   26.7791  -71.4093 H         1 UNK         0.0847 
     91 H91       -70.5519   27.0920  -73.3326 H         1 UNK         0.3141 
     92 H92       -70.4174   26.5348  -75.6261 H         1 UNK         0.0743 
     93 H93       -72.4944   24.4532  -74.7501 H         1 UNK         0.0784 
     94 H94       -71.0428   24.0812  -75.6774 H         1 UNK         0.0784 
     95 H95       -70.9091   24.7133  -74.0461 H         1 UNK         0.0784 
     96 H96       -72.7507   25.5039  -77.0497 H         1 UNK         0.3213 
     97 H97       -73.0441   28.0581  -79.3327 H         1 UNK         0.0855 
     98 H98       -71.0384   25.8675  -80.0982 H         1 UNK         0.0814 
     99 H99       -70.7899   27.5985  -80.2737 H         1 UNK         0.0814 
    100 H100      -72.0260   26.7973  -81.2268 H         1 UNK         0.0814 
    101 H101      -73.3009   25.1219  -79.4489 H         1 UNK         0.3105 
    102 H102      -76.7622   25.3455  -79.3521 H         1 UNK         0.0547 
    103 H103      -75.0743   24.3041  -80.8998 H         1 UNK         0.0837 
    104 H104      -74.3915   23.4035  -79.5468 H         1 UNK         0.0837 
    105 H105      -76.0461   23.1141  -80.0568 H         1 UNK         0.0837 
    106 H106      -77.1013   24.3244  -77.4208 H         1 UNK         0.3020 
    107 H107      -75.0877   22.6373  -75.1058 H         1 UNK         0.1245 
    108 H108      -74.8189   25.0987  -74.2931 H         1 UNK         0.0781 
    109 H109      -75.6987   23.9906  -73.2985 H         1 UNK         0.0781 
    110 H110      -77.1034   26.5784  -76.3962 H         1 UNK         0.0836 
    111 H111      -75.6730   27.0060  -75.4910 H         1 UNK         0.0836 
    112 H112      -77.8552   23.3383  -75.0903 H         1 UNK         0.3022 
    113 H113      -79.0647   21.2657  -77.5297 H         1 UNK         0.0747 
    114 H114      -80.2972   19.8631  -75.8883 H         1 UNK         0.0793 
    115 H115      -78.6291   19.3279  -75.9983 H         1 UNK         0.0793 
    116 H116      -79.1485   20.2903  -74.6203 H         1 UNK         0.0793 
    117 H117      -80.4283   22.3136  -75.2617 H         1 UNK         0.3047 
    118 H118      -80.6715   25.7051  -76.2851 H         1 UNK         0.0822 
    119 H119      -83.0517   25.1292  -75.9169 H         1 UNK         0.0807 
    120 H120      -82.6789   23.4092  -76.0126 H         1 UNK         0.0807 
    121 H121      -82.4590   24.4375  -77.4183 H         1 UNK         0.0807 
    122 H122      -80.4178   25.6749  -74.1038 H         1 UNK         0.2946 
    123 H123      -81.4711   23.8958  -71.4354 H         1 UNK         0.1144 
    124 H124      -78.5208   23.5853  -72.2369 H         1 UNK         0.0793 
    125 H125      -79.5910   22.2922  -71.7150 H         1 UNK         0.0793 
    126 H126      -79.1391   23.5580  -70.5864 H         1 UNK         0.0793 
    127 H127      -79.3881   25.9094  -72.1199 H         1 UNK         0.2896 
@<TRIPOS>BOND
     1    1    2 1    
     2    1   67 1    
     3    1   68 1    
     4    1   69 1    
     5    2    3 2    
     6    2    4 am   BACKBONE|DICT|INTERRES
     7    4    5 1    
     8    4   70 1    
     9    5    6 1    
    10    5   65 1    
    11    5   71 1    
    12    6    7 1    
    13    6   72 1    
    14    6   73 1    
    15    7    8 1    
    16    8    9 1    
    17    8   74 1    
    18    8   75 1    
    19    9   10 ar   
    20    9   14 ar   
    21   10   11 ar   
    22   10   76 1    
    23   11   12 ar   
    24   11   48 1    
    25   12   13 ar   
    26   12   77 1    
    27   13   14 ar   
    28   13   15 1    
    29   14   78 1    
    30   15   16 1    
    31   15   79 1    
    32   15   80 1    
    33   16   17 1    
    34   17   18 1    
    35   17   81 1    
    36   17   82 1    
    37   18   19 1    
    38   18   22 1    
    39   18   83 1    
    40   19   20 am   BACKBONE|DICT|INTERRES
    41   19   21 2    
    42   20   84 1    
    43   20   85 1    
    44   22   23 am   BACKBONE|DICT|INTERRES
    45   22   86 1    
    46   23   24 2    
    47   23   25 1    
    48   25   26 1    
    49   25   27 1    
    50   25   87 1    
    51   26   88 1    
    52   26   89 1    
    53   26   90 1    
    54   27   28 am   BACKBONE|DICT|INTERRES
    55   27   91 1    
    56   28   29 2    
    57   28   30 1    
    58   30   31 1    
    59   30   32 1    
    60   30   92 1    
    61   31   93 1    
    62   31   94 1    
    63   31   95 1    
    64   32   33 am   BACKBONE|DICT|INTERRES
    65   32   96 1    
    66   33   34 2    
    67   33   35 1    
    68   35   36 1    
    69   35   37 1    
    70   35   97 1    
    71   36   98 1    
    72   36   99 1    
    73   36  100 1    
    74   37   38 am   BACKBONE|DICT|INTERRES
    75   37  101 1    
    76   38   39 2    
    77   38   40 1    
    78   40   41 1    
    79   40   42 1    
    80   40  102 1    
    81   41  103 1    
    82   41  104 1    
    83   41  105 1    
    84   42   43 am   BACKBONE|DICT|INTERRES
    85   42  106 1    
    86   43   44 2    
    87   43   45 1    
    88   45   46 1    
    89   45   49 1    
    90   45  107 1    
    91   46   47 1    
    92   46  108 1    
    93   46  109 1    
    94   47   48 1    
    95   48  110 1    
    96   48  111 1    
    97   49   50 am   BACKBONE|DICT|INTERRES
    98   49  112 1    
    99   50   51 2    
   100   50   52 1    
   101   52   53 1    
   102   52   54 1    
   103   52  113 1    
   104   53  114 1    
   105   53  115 1    
   106   53  116 1    
   107   54   55 am   BACKBONE|DICT|INTERRES
   108   54  117 1    
   109   55   56 2    
   110   55   57 1    
   111   57   58 1    
   112   57   59 1    
   113   57  118 1    
   114   58  119 1    
   115   58  120 1    
   116   58  121 1    
   117   59   60 am   BACKBONE|DICT|INTERRES
   118   59  122 1    
   119   60   61 2    
   120   60   62 1    
   121   62   63 1    
   122   62   64 1    
   123   62  123 1    
   124   63  124 1    
   125   63  125 1    
   126   63  126 1    
   127   64   65 am   BACKBONE|DICT|INTERRES
   128   64  127 1    
   129   65   66 2    
@<TRIPOS>SUBSTRUCTURE
     1 UNK         1 GROUP             0       ****    0 ROOT    
