@<TRIPOS>MOLECULE
3R135
127   129    1
SMALL
USER_CHARGES


@<TRIPOS>ATOM
      1 CA        -82.5916   25.5842  -77.0985 C.3       0 UNK        -0.1998 
      2 C         -81.8054   26.3291  -76.0323 C.2       0 UNK         0.4909 
      3 O         -80.6126   26.0721  -75.8610 O.2       0 UNK        -0.5240 
      4 N         -82.4477   27.2729  -75.3288 N.am      1 UNK        -0.4739 
      5 CA        -81.9301   28.0779  -74.2036 C.3       1 UNK         0.0864 
      6 C6        -81.4690   27.1988  -73.0004 C.3       11 UNK        -0.0881 
      7 S7        -82.3506   27.5836  -71.4492 S.3       11 UNK        -0.2682 
      8 C8        -81.3307   28.9011  -70.7052 C.3       11 UNK         0.0289 
      9 C9        -79.8726   28.5020  -70.5173 C.ar      11 UNK        -0.0687 
     10 C10       -79.5314   27.3936  -69.7369 C.ar      11 UNK        -0.0823 
     11 C11       -78.1932   27.0175  -69.5845 C.ar      11 UNK        -0.0830 
     12 C12       -77.1888   27.7732  -70.1971 C.ar      11 UNK        -0.1021 
     13 C13       -77.5195   28.8818  -70.9796 C.ar      11 UNK        -0.0753 
     14 C14       -78.8606   29.2432  -71.1329 C.ar      11 UNK        -0.0933 
     15 C15       -76.4383   29.6814  -71.6846 C.3       11 UNK         0.0166 
     16 S16       -76.2460   29.1067  -73.3977 S.3       11 UNK        -0.2615 
     17 C17       -74.6261   28.2651  -73.3639 C.3       11 UNK        -0.0865 
     18 CA        -73.5005   29.1717  -73.9267 C.3       10 UNK         0.0862 
     19 C         -72.1124   28.4914  -73.7788 C.2       10 UNK         0.5551 
     20 N         -71.5923   27.8436  -74.8118 N.am      10 UNK        -0.7319 
     21 O         -71.5035   28.5583  -72.7142 O.2       10 UNK        -0.5018 
     22 N         -73.8102   29.6330  -75.2899 N.am      10 UNK        -0.4509 
     23 C         -73.2532   30.6901  -75.8936 C.2       10 UNK         0.4899 
     24 O         -72.3587   31.3733  -75.3920 O.2       10 UNK        -0.4839 
     25 CA        -73.8413   31.0798  -77.2644 C.3       9 UNK         0.0222 
     26 CB        -72.9449   32.0437  -78.0728 C.3       9 UNK        -0.1966 
     27 N         -74.2596   29.9127  -78.0483 N.am      9 UNK        -0.4218 
     28 C         -73.4767   29.0117  -78.6571 C.2       9 UNK         0.5020 
     29 O         -72.2506   29.0934  -78.7622 O.2       9 UNK        -0.5274 
     30 CA        -74.2083   27.7965  -79.2561 C.3       8 UNK         0.0270 
     31 CB        -74.2602   27.8935  -80.7894 C.3       8 UNK        -0.1976 
     32 N         -73.6244   26.5072  -78.8685 N.am      8 UNK        -0.4313 
     33 C         -73.3585   26.1219  -77.6137 C.2       8 UNK         0.5041 
     34 O         -73.5325   26.8338  -76.6193 O.2       8 UNK        -0.5577 
     35 CA        -72.8121   24.7019  -77.4273 C.3       7 UNK         0.0284 
     36 CB        -71.3780   24.5672  -77.9708 C.3       7 UNK        -0.1958 
     37 N         -72.8222   24.4283  -75.9970 N.am      7 UNK        -0.4454 
     38 C         -72.9614   23.2420  -75.4039 C.2       7 UNK         0.5089 
     39 O         -73.0540   22.1721  -76.0073 O.2       7 UNK        -0.5125 
     40 CA        -72.9963   23.2554  -73.8712 C.3       6 UNK         0.0408 
     41 CB        -72.1077   24.3562  -73.2467 C.3       6 UNK        -0.1791 
     42 N         -74.3769   23.3866  -73.4043 N.am      6 UNK        -0.4762 
     43 C         -74.7868   23.0090  -72.1842 C.2       6 UNK         0.5007 
     44 O         -74.0370   22.4768  -71.3633 O.2       6 UNK        -0.5032 
     45 CA        -76.2528   23.2624  -71.7715 C.3       5 UNK         0.0783 
     46 C46       -76.3296   24.3157  -70.6404 C.3       11 UNK        -0.0857 
     47 S47       -77.9455   24.2800  -69.7974 S.3       11 UNK        -0.2512 
     48 C48       -77.8430   25.7809  -68.7739 C.3       11 UNK         0.0225 
     49 N         -77.1243   23.6142  -72.8981 N.am      5 UNK        -0.4615 
     50 C         -77.6629   22.7174  -73.7309 C.2       4 UNK         0.5053 
     51 O         -77.4613   21.5051  -73.6483 O.2       4 UNK        -0.5105 
     52 CA        -78.5952   23.2430  -74.8380 C.3       4 UNK         0.0263 
     53 CB        -80.0514   23.2310  -74.3433 C.3       4 UNK        -0.1981 
     54 N         -78.2885   24.5664  -75.4038 N.am      4 UNK        -0.4224 
     55 C         -77.1025   24.9529  -75.9010 C.2       3 UNK         0.4895 
     56 O         -76.0575   24.3254  -75.7352 O.2       3 UNK        -0.5091 
     57 CA        -77.0620   26.2202  -76.7682 C.3       3 UNK         0.0250 
     58 CB        -77.3238   25.8538  -78.2415 C.3       3 UNK        -0.1996 
     59 N         -77.9933   27.2652  -76.3429 N.am      3 UNK        -0.4254 
     60 C         -77.8019   28.5781  -76.5596 C.2       2 UNK         0.5004 
     61 O         -76.7984   29.0349  -77.1128 O.2       2 UNK        -0.5226 
     62 CA        -78.9059   29.5550  -76.1103 C.3       2 UNK         0.0269 
     63 CB        -79.2882   30.5356  -77.2336 C.3       2 UNK        -0.1926 
     64 N         -80.0992   28.8384  -75.6671 N.am      2 UNK        -0.4687 
     65 C         -80.8406   29.1102  -74.5906 C.2       1 UNK         0.5165 
     66 O         -80.6958   30.1255  -73.9099 O.2       1 UNK        -0.5079 
     67 H67       -83.6238   25.9282  -77.1597 H         1 UNK         0.0900 
     68 H68       -82.1266   25.7258  -78.0736 H         1 UNK         0.0900 
     69 H69       -82.6010   24.5175  -76.8772 H         1 UNK         0.0900 
     70 H70       -83.4155   27.4578  -75.5563 H         1 UNK         0.2959 
     71 H71       -82.7846   28.6800  -73.8902 H         1 UNK         0.1079 
     72 H72       -80.3894   27.2358  -72.8421 H         1 UNK         0.0837 
     73 H73       -81.6717   26.1449  -73.1953 H         1 UNK         0.0837 
     74 H74       -81.4130   29.7976  -71.3210 H         1 UNK         0.0685 
     75 H75       -81.7514   29.1614  -69.7332 H         1 UNK         0.0685 
     76 H76       -80.3118   26.8092  -69.2686 H         1 UNK         0.1434 
     77 H77       -76.1520   27.4888  -70.0824 H         1 UNK         0.1329 
     78 H78       -79.1149   30.0961  -71.7475 H         1 UNK         0.1335 
     79 H79       -75.4933   29.6222  -71.1430 H         1 UNK         0.0680 
     80 H80       -76.7121   30.7374  -71.6989 H         1 UNK         0.0680 
     81 H81       -74.7062   27.3526  -73.9585 H         1 UNK         0.1032 
     82 H82       -74.4006   27.9420  -72.3459 H         1 UNK         0.1032 
     83 H83       -73.4657   30.0621  -73.2953 H         1 UNK         0.0461 
     84 H84       -72.1537   27.7210  -75.6501 H         1 UNK         0.3453 
     85 H85       -70.6829   27.4196  -74.7336 H         1 UNK         0.3453 
     86 H86       -74.5088   29.0985  -75.7880 H         1 UNK         0.2984 
     87 H87       -74.7638   31.6178  -77.0414 H         1 UNK         0.0554 
     88 H88       -72.8088   32.9851  -77.5394 H         1 UNK         0.0847 
     89 H89       -73.3862   32.2813  -79.0405 H         1 UNK         0.0847 
     90 H90       -71.9518   31.6291  -78.2470 H         1 UNK         0.0847 
     91 H91       -75.2486   29.6810  -77.9569 H         1 UNK         0.3141 
     92 H92       -75.2327   27.8001  -78.8852 H         1 UNK         0.0743 
     93 H93       -74.8590   27.0907  -81.2199 H         1 UNK         0.0784 
     94 H94       -74.7101   28.8358  -81.1054 H         1 UNK         0.0784 
     95 H95       -73.2630   27.8452  -81.2290 H         1 UNK         0.0784 
     96 H96       -73.4170   25.8679  -79.6216 H         1 UNK         0.3213 
     97 H97       -73.4796   24.0039  -77.9376 H         1 UNK         0.0855 
     98 H98       -70.7011   25.2788  -77.4959 H         1 UNK         0.0814 
     99 H99       -71.3421   24.7486  -79.0454 H         1 UNK         0.0814 
    100 H100      -70.9824   23.5658  -77.8006 H         1 UNK         0.0814 
    101 H101      -72.8639   25.2724  -75.4384 H         1 UNK         0.3105 
    102 H102      -72.6050   22.2869  -73.5518 H         1 UNK         0.0547 
    103 H103      -71.1086   24.3534  -73.6847 H         1 UNK         0.0837 
    104 H104      -72.5289   25.3522  -73.3849 H         1 UNK         0.0837 
    105 H105      -71.9831   24.2013  -72.1750 H         1 UNK         0.0837 
    106 H106      -75.0479   23.7486  -74.0788 H         1 UNK         0.3020 
    107 H107      -76.5996   22.3127  -71.3562 H         1 UNK         0.1245 
    108 H108      -76.1375   25.3118  -71.0399 H         1 UNK         0.0781 
    109 H109      -75.5681   24.1362  -69.8785 H         1 UNK         0.0781 
    110 H110      -76.8468   25.8702  -68.3376 H         1 UNK         0.0836 
    111 H111      -78.5338   25.6836  -67.9349 H         1 UNK         0.0836 
    112 H112      -77.3409   24.5916  -73.0246 H         1 UNK         0.3022 
    113 H113      -78.5195   22.5335  -75.6643 H         1 UNK         0.0747 
    114 H114      -80.7496   23.4051  -75.1617 H         1 UNK         0.0793 
    115 H115      -80.3114   22.2678  -73.9017 H         1 UNK         0.0793 
    116 H116      -80.2235   23.9959  -73.5851 H         1 UNK         0.0793 
    117 H117      -79.1072   25.1389  -75.6009 H         1 UNK         0.3047 
    118 H118      -76.0527   26.6189  -76.6791 H         1 UNK         0.0822 
    119 H119      -77.2754   26.7262  -78.8920 H         1 UNK         0.0807 
    120 H120      -78.3085   25.4031  -78.3712 H         1 UNK         0.0807 
    121 H121      -76.5843   25.1376  -78.6021 H         1 UNK         0.0807 
    122 H122      -78.8377   26.9578  -75.8753 H         1 UNK         0.2946 
    123 H123      -78.4895   30.1230  -75.2752 H         1 UNK         0.1144 
    124 H124      -78.4247   31.1168  -77.5597 H         1 UNK         0.0793 
    125 H125      -80.0452   31.2447  -76.8984 H         1 UNK         0.0793 
    126 H126      -79.6804   30.0124  -78.1064 H         1 UNK         0.0793 
    127 H127      -80.3076   27.9701  -76.1473 H         1 UNK         0.2896 
@<TRIPOS>BOND
     1    1    2 1    
     2    1   67 1    
     3    1   68 1    
     4    1   69 1    
     5    2    3 2    
     6    2    4 am   BACKBONE|DICT|INTERRES
     7    4    5 1    
     8    4   70 1    
     9    5    6 1    
    10    5   65 1    
    11    5   71 1    
    12    6    7 1    
    13    6   72 1    
    14    6   73 1    
    15    7    8 1    
    16    8    9 1    
    17    8   74 1    
    18    8   75 1    
    19    9   10 ar   
    20    9   14 ar   
    21   10   11 ar   
    22   10   76 1    
    23   11   12 ar   
    24   11   48 1    
    25   12   13 ar   
    26   12   77 1    
    27   13   14 ar   
    28   13   15 1    
    29   14   78 1    
    30   15   16 1    
    31   15   79 1    
    32   15   80 1    
    33   16   17 1    
    34   17   18 1    
    35   17   81 1    
    36   17   82 1    
    37   18   19 1    
    38   18   22 1    
    39   18   83 1    
    40   19   20 am   BACKBONE|DICT|INTERRES
    41   19   21 2    
    42   20   84 1    
    43   20   85 1    
    44   22   23 am   BACKBONE|DICT|INTERRES
    45   22   86 1    
    46   23   24 2    
    47   23   25 1    
    48   25   26 1    
    49   25   27 1    
    50   25   87 1    
    51   26   88 1    
    52   26   89 1    
    53   26   90 1    
    54   27   28 am   BACKBONE|DICT|INTERRES
    55   27   91 1    
    56   28   29 2    
    57   28   30 1    
    58   30   31 1    
    59   30   32 1    
    60   30   92 1    
    61   31   93 1    
    62   31   94 1    
    63   31   95 1    
    64   32   33 am   BACKBONE|DICT|INTERRES
    65   32   96 1    
    66   33   34 2    
    67   33   35 1    
    68   35   36 1    
    69   35   37 1    
    70   35   97 1    
    71   36   98 1    
    72   36   99 1    
    73   36  100 1    
    74   37   38 am   BACKBONE|DICT|INTERRES
    75   37  101 1    
    76   38   39 2    
    77   38   40 1    
    78   40   41 1    
    79   40   42 1    
    80   40  102 1    
    81   41  103 1    
    82   41  104 1    
    83   41  105 1    
    84   42   43 am   BACKBONE|DICT|INTERRES
    85   42  106 1    
    86   43   44 2    
    87   43   45 1    
    88   45   46 1    
    89   45   49 1    
    90   45  107 1    
    91   46   47 1    
    92   46  108 1    
    93   46  109 1    
    94   47   48 1    
    95   48  110 1    
    96   48  111 1    
    97   49   50 am   BACKBONE|DICT|INTERRES
    98   49  112 1    
    99   50   51 2    
   100   50   52 1    
   101   52   53 1    
   102   52   54 1    
   103   52  113 1    
   104   53  114 1    
   105   53  115 1    
   106   53  116 1    
   107   54   55 am   BACKBONE|DICT|INTERRES
   108   54  117 1    
   109   55   56 2    
   110   55   57 1    
   111   57   58 1    
   112   57   59 1    
   113   57  118 1    
   114   58  119 1    
   115   58  120 1    
   116   58  121 1    
   117   59   60 am   BACKBONE|DICT|INTERRES
   118   59  122 1    
   119   60   61 2    
   120   60   62 1    
   121   62   63 1    
   122   62   64 1    
   123   62  123 1    
   124   63  124 1    
   125   63  125 1    
   126   63  126 1    
   127   64   65 am   BACKBONE|DICT|INTERRES
   128   64  127 1    
   129   65   66 2    
@<TRIPOS>SUBSTRUCTURE
     1 UNK         1 GROUP             0       ****    0 ROOT    
