@<TRIPOS>MOLECULE
3R135
127   129    1
SMALL
USER_CHARGES


@<TRIPOS>ATOM
      1 CA        -78.0632   30.6806  -75.1738 C.3       0 UNK        -0.1998 
      2 C         -78.5882   29.3826  -74.5780 C.2       0 UNK         0.4909 
      3 O         -78.0307   28.3199  -74.8473 O.2       0 UNK        -0.5240 
      4 N         -79.6492   29.4662  -73.7656 N.am      1 UNK        -0.4739 
      5 CA        -80.2721   28.3290  -73.0793 C.3       1 UNK         0.0864 
      6 C6        -81.2358   28.7812  -71.9475 C.3       11 UNK        -0.0881 
      7 S7        -80.5495   30.0454  -70.8203 S.3       11 UNK        -0.2682 
      8 C8        -79.8460   29.0362  -69.4781 C.3       11 UNK         0.0289 
      9 C9        -78.5642   28.3431  -69.9132 C.ar      11 UNK        -0.0687 
     10 C10       -78.5281   26.9560  -70.0793 C.ar      11 UNK        -0.0823 
     11 C11       -77.3573   26.3249  -70.5105 C.ar      11 UNK        -0.0830 
     12 C12       -76.2105   27.0888  -70.7556 C.ar      11 UNK        -0.1021 
     13 C13       -76.2334   28.4752  -70.5817 C.ar      11 UNK        -0.0753 
     14 C14       -77.4116   29.0954  -70.1574 C.ar      11 UNK        -0.0933 
     15 C15       -74.9905   29.3102  -70.8445 C.3       11 UNK         0.0166 
     16 S16       -74.9977   29.9963  -72.5300 S.3       11 UNK        -0.2615 
     17 C17       -74.1424   31.5794  -72.2368 C.3       11 UNK        -0.0865 
     18 CA        -73.6392   32.2553  -73.5385 C.3       10 UNK         0.0862 
     19 C         -73.1744   33.7131  -73.2414 C.2       10 UNK         0.5551 
     20 N         -71.8895   34.0357  -73.3303 N.am      10 UNK        -0.7319 
     21 O         -73.9999   34.5660  -72.9245 O.2       10 UNK        -0.5018 
     22 N         -72.6489   31.4184  -74.2398 N.am      10 UNK        -0.4509 
     23 C         -72.2386   31.6105  -75.5014 C.2       10 UNK         0.4899 
     24 O         -72.6833   32.4880  -76.2420 O.2       10 UNK        -0.4839 
     25 CA        -71.1292   30.6825  -76.0285 C.3       9 UNK         0.0222 
     26 CB        -69.7527   31.3463  -75.8577 C.3       9 UNK        -0.1966 
     27 N         -71.1138   29.3637  -75.3877 N.am      9 UNK        -0.4218 
     28 C         -72.0056   28.3965  -75.6374 C.2       9 UNK         0.5020 
     29 O         -72.9441   28.5150  -76.4287 O.2       9 UNK        -0.5274 
     30 CA        -71.8276   27.0913  -74.8467 C.3       8 UNK         0.0270 
     31 CB        -72.6401   27.1388  -73.5407 C.3       8 UNK        -0.1976 
     32 N         -72.2611   25.9463  -75.6481 N.am      8 UNK        -0.4313 
     33 C         -71.5036   25.3381  -76.5733 C.2       8 UNK         0.5041 
     34 O         -70.3235   25.6271  -76.7797 O.2       8 UNK        -0.5577 
     35 CA        -72.1464   24.2109  -77.4085 C.3       7 UNK         0.0284 
     36 CB        -71.7855   22.8360  -76.8225 C.3       7 UNK        -0.1958 
     37 N         -73.6026   24.3197  -77.5088 N.am      7 UNK        -0.4454 
     38 C         -74.2532   25.2624  -78.2036 C.2       7 UNK         0.5089 
     39 O         -73.6941   26.0445  -78.9732 O.2       7 UNK        -0.5125 
     40 CA        -75.7812   25.3664  -78.0091 C.3       6 UNK         0.0408 
     41 CB        -76.5164   24.8878  -79.2712 C.3       6 UNK        -0.1791 
     42 N         -76.3376   24.6639  -76.8429 N.am      6 UNK        -0.4762 
     43 C         -75.9914   24.8459  -75.5574 C.2       6 UNK         0.5007 
     44 O         -75.0548   25.5614  -75.2073 O.2       6 UNK        -0.5032 
     45 CA        -76.7927   24.0997  -74.4726 C.3       5 UNK         0.0783 
     46 C46       -77.4815   25.1181  -73.5328 C.3       11 UNK        -0.0857 
     47 S47       -78.3678   24.3280  -72.1474 S.3       11 UNK        -0.2512 
     48 C48       -77.3394   24.8180  -70.7259 C.3       11 UNK         0.0225 
     49 N         -77.7471   23.1484  -75.0506 N.am      5 UNK        -0.4615 
     50 C         -77.4616   21.8822  -75.3814 C.2       4 UNK         0.5053 
     51 O         -76.3434   21.3847  -75.2489 O.2       4 UNK        -0.5105 
     52 CA        -78.6024   21.0148  -75.9495 C.3       4 UNK         0.0263 
     53 CB        -79.1274   20.0549  -74.8693 C.3       4 UNK        -0.1981 
     54 N         -79.7256   21.7939  -76.4767 N.am      4 UNK        -0.4224 
     55 C         -79.7021   22.4967  -77.6181 C.2       3 UNK         0.4895 
     56 O         -78.7484   22.5049  -78.3957 O.2       3 UNK        -0.5091 
     57 CA        -80.9311   23.3799  -77.9144 C.3       3 UNK         0.0250 
     58 CB        -81.9650   22.6031  -78.7451 C.3       3 UNK        -0.1996 
     59 N         -81.5768   23.9240  -76.7098 N.am      3 UNK        -0.4254 
     60 C         -80.9625   24.7082  -75.8120 C.2       2 UNK         0.5004 
     61 O         -79.7870   25.0567  -75.9214 O.2       2 UNK        -0.5226 
     62 CA        -81.7692   25.0933  -74.5589 C.3       2 UNK         0.0269 
     63 CB        -82.0054   23.8584  -73.6707 C.3       2 UNK        -0.1926 
     64 N         -81.0902   26.1150  -73.7550 N.am      2 UNK        -0.4687 
     65 C         -81.0279   27.4155  -74.0696 C.2       1 UNK         0.5165 
     66 O         -81.5950   27.9067  -75.0503 O.2       1 UNK        -0.5079 
     67 H67       -77.0184   30.8219  -74.8973 H         1 UNK         0.0900 
     68 H68       -78.6257   31.5467  -74.8256 H         1 UNK         0.0900 
     69 H69       -78.1267   30.6471  -76.2611 H         1 UNK         0.0900 
     70 H70       -80.0731   30.3643  -73.5839 H         1 UNK         0.2959 
     71 H71       -79.4633   27.7449  -72.6353 H         1 UNK         0.1079 
     72 H72       -82.1456   29.2071  -72.3760 H         1 UNK         0.0837 
     73 H73       -81.5611   27.9209  -71.3595 H         1 UNK         0.0837 
     74 H74       -79.6275   29.6852  -68.6289 H         1 UNK         0.0685 
     75 H75       -80.5884   28.3165  -69.1296 H         1 UNK         0.0685 
     76 H76       -79.4157   26.3662  -69.8944 H         1 UNK         0.1434 
     77 H77       -75.3024   26.6083  -71.0937 H         1 UNK         0.1329 
     78 H78       -77.4377   30.1694  -70.0326 H         1 UNK         0.1335 
     79 H79       -74.9416   30.1174  -70.1119 H         1 UNK         0.0680 
     80 H80       -74.0879   28.7133  -70.7043 H         1 UNK         0.0680 
     81 H81       -73.3084   31.4180  -71.5509 H         1 UNK         0.1032 
     82 H82       -74.8452   32.2307  -71.7127 H         1 UNK         0.1032 
     83 H83       -74.4974   32.3519  -74.2068 H         1 UNK         0.0461 
     84 H84       -71.6032   34.9827  -73.1379 H         1 UNK         0.3453 
     85 H85       -71.2060   33.3435  -73.5894 H         1 UNK         0.3453 
     86 H86       -72.2438   30.6648  -73.7066 H         1 UNK         0.2984 
     87 H87       -71.3025   30.5403  -77.0976 H         1 UNK         0.0554 
     88 H88       -68.9633   30.7450  -76.3092 H         1 UNK         0.0847 
     89 H89       -69.5008   31.4978  -74.8074 H         1 UNK         0.0847 
     90 H90       -69.7278   32.3235  -76.3426 H         1 UNK         0.0847 
     91 H91       -70.3714   29.1856  -74.7259 H         1 UNK         0.3141 
     92 H92       -70.7729   26.9662  -74.5917 H         1 UNK         0.0743 
     93 H93       -72.2854   27.9360  -72.8865 H         1 UNK         0.0784 
     94 H94       -73.6984   27.3251  -73.7297 H         1 UNK         0.0784 
     95 H95       -72.5593   26.2037  -72.9865 H         1 UNK         0.0784 
     96 H96       -73.2506   25.7135  -75.5823 H         1 UNK         0.3213 
     97 H97       -71.7307   24.2732  -78.4166 H         1 UNK         0.0855 
     98 H98       -70.7034   22.7110  -76.7608 H         1 UNK         0.0814 
     99 H99       -72.1684   22.0260  -77.4436 H         1 UNK         0.0814 
    100 H100      -72.1859   22.7077  -75.8160 H         1 UNK         0.0814 
    101 H101      -74.1504   23.7175  -76.9118 H         1 UNK         0.3105 
    102 H102      -76.0035   26.4263  -77.8707 H         1 UNK         0.0547 
    103 H103      -76.1608   25.4139  -80.1582 H         1 UNK         0.0837 
    104 H104      -76.3678   23.8209  -79.4425 H         1 UNK         0.0837 
    105 H105      -77.5891   25.0688  -79.1991 H         1 UNK         0.0837 
    106 H106      -77.1175   24.0476  -77.0284 H         1 UNK         0.3020 
    107 H107      -76.0619   23.5463  -73.8783 H         1 UNK         0.1245 
    108 H108      -78.1927   25.7332  -74.0829 H         1 UNK         0.0781 
    109 H109      -76.7461   25.8206  -73.1399 H         1 UNK         0.0781 
    110 H110      -76.3215   24.4546  -70.8758 H         1 UNK         0.0836 
    111 H111      -77.7132   24.3215  -69.8294 H         1 UNK         0.0836 
    112 H112      -78.6670   23.5287  -75.2435 H         1 UNK         0.3022 
    113 H113      -78.1853   20.4192  -76.7645 H         1 UNK         0.0747 
    114 H114      -79.8883   19.3842  -75.2689 H         1 UNK         0.0793 
    115 H115      -78.3228   19.4312  -74.4769 H         1 UNK         0.0793 
    116 H116      -79.5615   20.5941  -74.0261 H         1 UNK         0.0793 
    117 H117      -80.5555   21.8407  -75.9041 H         1 UNK         0.3047 
    118 H118      -80.5819   24.2271  -78.5087 H         1 UNK         0.0822 
    119 H119      -82.7935   23.2436  -79.0483 H         1 UNK         0.0807 
    120 H120      -82.3771   21.7580  -78.1922 H         1 UNK         0.0807 
    121 H121      -81.5146   22.2075  -79.6568 H         1 UNK         0.0807 
    122 H122      -82.5424   23.6680  -76.5587 H         1 UNK         0.2946 
    123 H123      -82.7343   25.4887  -74.8845 H         1 UNK         0.1144 
    124 H124      -82.5632   24.1188  -72.7709 H         1 UNK         0.0793 
    125 H125      -81.0667   23.3981  -73.3593 H         1 UNK         0.0793 
    126 H126      -82.5846   23.0959  -74.1928 H         1 UNK         0.0793 
    127 H127      -80.5696   25.7781  -72.9575 H         1 UNK         0.2896 
@<TRIPOS>BOND
     1    1    2 1    
     2    1   67 1    
     3    1   68 1    
     4    1   69 1    
     5    2    3 2    
     6    2    4 am   BACKBONE|DICT|INTERRES
     7    4    5 1    
     8    4   70 1    
     9    5    6 1    
    10    5   65 1    
    11    5   71 1    
    12    6    7 1    
    13    6   72 1    
    14    6   73 1    
    15    7    8 1    
    16    8    9 1    
    17    8   74 1    
    18    8   75 1    
    19    9   10 ar   
    20    9   14 ar   
    21   10   11 ar   
    22   10   76 1    
    23   11   12 ar   
    24   11   48 1    
    25   12   13 ar   
    26   12   77 1    
    27   13   14 ar   
    28   13   15 1    
    29   14   78 1    
    30   15   16 1    
    31   15   79 1    
    32   15   80 1    
    33   16   17 1    
    34   17   18 1    
    35   17   81 1    
    36   17   82 1    
    37   18   19 1    
    38   18   22 1    
    39   18   83 1    
    40   19   20 am   BACKBONE|DICT|INTERRES
    41   19   21 2    
    42   20   84 1    
    43   20   85 1    
    44   22   23 am   BACKBONE|DICT|INTERRES
    45   22   86 1    
    46   23   24 2    
    47   23   25 1    
    48   25   26 1    
    49   25   27 1    
    50   25   87 1    
    51   26   88 1    
    52   26   89 1    
    53   26   90 1    
    54   27   28 am   BACKBONE|DICT|INTERRES
    55   27   91 1    
    56   28   29 2    
    57   28   30 1    
    58   30   31 1    
    59   30   32 1    
    60   30   92 1    
    61   31   93 1    
    62   31   94 1    
    63   31   95 1    
    64   32   33 am   BACKBONE|DICT|INTERRES
    65   32   96 1    
    66   33   34 2    
    67   33   35 1    
    68   35   36 1    
    69   35   37 1    
    70   35   97 1    
    71   36   98 1    
    72   36   99 1    
    73   36  100 1    
    74   37   38 am   BACKBONE|DICT|INTERRES
    75   37  101 1    
    76   38   39 2    
    77   38   40 1    
    78   40   41 1    
    79   40   42 1    
    80   40  102 1    
    81   41  103 1    
    82   41  104 1    
    83   41  105 1    
    84   42   43 am   BACKBONE|DICT|INTERRES
    85   42  106 1    
    86   43   44 2    
    87   43   45 1    
    88   45   46 1    
    89   45   49 1    
    90   45  107 1    
    91   46   47 1    
    92   46  108 1    
    93   46  109 1    
    94   47   48 1    
    95   48  110 1    
    96   48  111 1    
    97   49   50 am   BACKBONE|DICT|INTERRES
    98   49  112 1    
    99   50   51 2    
   100   50   52 1    
   101   52   53 1    
   102   52   54 1    
   103   52  113 1    
   104   53  114 1    
   105   53  115 1    
   106   53  116 1    
   107   54   55 am   BACKBONE|DICT|INTERRES
   108   54  117 1    
   109   55   56 2    
   110   55   57 1    
   111   57   58 1    
   112   57   59 1    
   113   57  118 1    
   114   58  119 1    
   115   58  120 1    
   116   58  121 1    
   117   59   60 am   BACKBONE|DICT|INTERRES
   118   59  122 1    
   119   60   61 2    
   120   60   62 1    
   121   62   63 1    
   122   62   64 1    
   123   62  123 1    
   124   63  124 1    
   125   63  125 1    
   126   63  126 1    
   127   64   65 am   BACKBONE|DICT|INTERRES
   128   64  127 1    
   129   65   66 2    
@<TRIPOS>SUBSTRUCTURE
     1 UNK         1 GROUP             0       ****    0 ROOT    
