@<TRIPOS>MOLECULE
3R135
127   129    1
SMALL
USER_CHARGES


@<TRIPOS>ATOM
      1 CA        -76.4065   23.5228  -70.4516 C.3       0 UNK        -0.1998 
      2 C         -77.6968   24.3274  -70.4579 C.2       0 UNK         0.4909 
      3 O         -78.6409   23.9839  -69.7455 O.2       0 UNK        -0.5240 
      4 N         -77.7347   25.4055  -71.2503 N.am      1 UNK        -0.4739 
      5 CA        -78.9084   26.2635  -71.4451 C.3       1 UNK         0.0864 
      6 C6        -78.4841   27.6029  -72.0906 C.3       11 UNK        -0.0881 
      7 S7        -79.6590   28.9721  -71.7945 S.3       11 UNK        -0.2682 
      8 C8        -80.3181   29.3129  -73.4676 C.3       11 UNK         0.0289 
      9 C9        -79.2317   29.4698  -74.5269 C.ar      11 UNK        -0.0687 
     10 C10       -79.3202   28.7646  -75.7302 C.ar      11 UNK        -0.0823 
     11 C11       -78.2949   28.8431  -76.6776 C.ar      11 UNK        -0.0830 
     12 C12       -77.1682   29.6271  -76.4077 C.ar      11 UNK        -0.1021 
     13 C13       -77.0720   30.3520  -75.2159 C.ar      11 UNK        -0.0753 
     14 C14       -78.1234   30.2888  -74.2947 C.ar      11 UNK        -0.0933 
     15 C15       -75.8339   31.2067  -74.9516 C.3       11 UNK         0.0166 
     16 S16       -75.3180   31.2457  -73.2009 S.3       11 UNK        -0.2615 
     17 C17       -74.7483   29.5289  -72.9509 C.3       11 UNK        -0.0865 
     18 CA        -73.2372   29.4696  -72.6076 C.3       10 UNK         0.0862 
     19 C         -72.7986   28.0405  -72.1859 C.2       10 UNK         0.5551 
     20 N         -73.3025   27.5484  -71.0615 N.am      10 UNK        -0.7319 
     21 O         -72.0020   27.3760  -72.8453 O.2       10 UNK        -0.5018 
     22 N         -72.4197   29.9791  -73.7178 N.am      10 UNK        -0.4509 
     23 C         -71.4538   30.9012  -73.6114 C.2       10 UNK         0.4899 
     24 O         -71.1744   31.4759  -72.5582 O.2       10 UNK        -0.4839 
     25 CA        -70.6338   31.2487  -74.8721 C.3       9 UNK         0.0222 
     26 CB        -69.1591   30.8530  -74.6804 C.3       9 UNK        -0.1966 
     27 N         -71.1327   30.6085  -76.0893 N.am      9 UNK        -0.4218 
     28 C         -72.1716   31.0279  -76.8248 C.2       9 UNK         0.5020 
     29 O         -72.7689   32.0864  -76.6293 O.2       9 UNK        -0.5274 
     30 CA        -72.6372   30.0938  -77.9617 C.3       8 UNK         0.0270 
     31 CB        -72.1180   30.5953  -79.3191 C.3       8 UNK        -0.1976 
     32 N         -72.2347   28.6919  -77.7750 N.am      8 UNK        -0.4313 
     33 C         -72.6611   27.9125  -76.7725 C.2       8 UNK         0.5041 
     34 O         -73.4826   28.2793  -75.9306 O.2       8 UNK        -0.5577 
     35 CA        -72.0063   26.5340  -76.6459 C.3       7 UNK         0.0284 
     36 CB        -70.5644   26.6646  -76.1133 C.3       7 UNK        -0.1958 
     37 N         -72.8128   25.7234  -75.7388 N.am      7 UNK        -0.4454 
     38 C         -72.7528   24.3954  -75.6069 C.2       7 UNK         0.5089 
     39 O         -71.9515   23.6845  -76.2148 O.2       7 UNK        -0.5125 
     40 CA        -73.7899   23.7291  -74.6876 C.3       6 UNK         0.0408 
     41 CB        -73.4540   23.9170  -73.1959 C.3       6 UNK        -0.1791 
     42 N         -75.1651   24.1156  -75.0240 N.am      6 UNK        -0.4762 
     43 C         -75.8050   25.2732  -74.8104 C.2       6 UNK         0.5007 
     44 O         -75.3591   26.1892  -74.1218 O.2       6 UNK        -0.5032 
     45 CA        -77.1702   25.4487  -75.5015 C.3       5 UNK         0.0783 
     46 C46       -76.9807   25.8770  -76.9814 C.3       11 UNK        -0.0857 
     47 S47       -78.5641   26.2934  -77.7850 S.3       11 UNK        -0.2512 
     48 C48       -78.4114   28.0959  -78.0005 C.3       11 UNK         0.0225 
     49 N         -78.0670   24.2983  -75.3109 N.am      5 UNK        -0.4615 
     50 C         -77.9829   23.0731  -75.8468 C.2       4 UNK         0.5053 
     51 O         -77.0627   22.6981  -76.5745 O.2       4 UNK        -0.5105 
     52 CA        -79.1104   22.0914  -75.4964 C.3       4 UNK         0.0263 
     53 CB        -78.8181   21.3864  -74.1611 C.3       4 UNK        -0.1981 
     54 N         -80.4181   22.7484  -75.4327 N.am      4 UNK        -0.4224 
     55 C         -81.1336   23.1192  -76.5064 C.2       3 UNK         0.4895 
     56 O         -80.7722   22.9144  -77.6659 O.2       3 UNK        -0.5091 
     57 CA        -82.4958   23.7999  -76.2657 C.3       3 UNK         0.0250 
     58 CB        -83.6444   22.8735  -76.7013 C.3       3 UNK        -0.1996 
     59 N         -82.7040   24.1793  -74.8663 N.am      3 UNK        -0.4254 
     60 C         -82.3005   25.3342  -74.3220 C.2       2 UNK         0.5004 
     61 O         -81.8009   26.2547  -74.9702 O.2       2 UNK        -0.5226 
     62 CA        -82.4608   25.4879  -72.7929 C.3       2 UNK         0.0269 
     63 CB        -82.9111   24.1962  -72.0714 C.3       2 UNK        -0.1926 
     64 N         -81.2492   26.0127  -72.1471 N.am      2 UNK        -0.4687 
     65 C         -79.9993   25.5402  -72.2680 C.2       1 UNK         0.5165 
     66 O         -79.6925   24.5922  -72.9974 O.2       1 UNK        -0.5079 
     67 H67       -76.1979   23.1468  -69.4503 H         1 UNK         0.0900 
     68 H68       -75.5577   24.1307  -70.7634 H         1 UNK         0.0900 
     69 H69       -76.4910   22.6717  -71.1267 H         1 UNK         0.0900 
     70 H70       -76.9336   25.6215  -71.8266 H         1 UNK         0.2959 
     71 H71       -79.3215   26.4687  -70.4546 H         1 UNK         0.1079 
     72 H72       -78.2835   27.4725  -73.1527 H         1 UNK         0.0837 
     73 H73       -77.5366   27.9328  -71.6618 H         1 UNK         0.0837 
     74 H74       -81.0030   28.5088  -73.7379 H         1 UNK         0.0685 
     75 H75       -80.9131   30.2262  -73.4335 H         1 UNK         0.0685 
     76 H76       -80.1802   28.1382  -75.9269 H         1 UNK         0.1434 
     77 H77       -76.3647   29.6801  -77.1299 H         1 UNK         0.1329 
     78 H78       -78.0662   30.8474  -73.3711 H         1 UNK         0.1335 
     79 H79       -76.0373   32.2264  -75.2801 H         1 UNK         0.0680 
     80 H80       -74.9932   30.8485  -75.5473 H         1 UNK         0.0680 
     81 H81       -75.3481   29.1035  -72.1453 H         1 UNK         0.1032 
     82 H82       -74.9668   28.9239  -73.8331 H         1 UNK         0.1032 
     83 H83       -73.0784   30.0971  -71.7287 H         1 UNK         0.0461 
     84 H84       -73.0201   26.6280  -70.7658 H         1 UNK         0.3453 
     85 H85       -73.9359   28.0855  -70.4913 H         1 UNK         0.3453 
     86 H86       -72.5879   29.5176  -74.6054 H         1 UNK         0.2984 
     87 H87       -70.6812   32.3319  -75.0021 H         1 UNK         0.0554 
     88 H88       -68.7292   31.3523  -73.8109 H         1 UNK         0.0847 
     89 H89       -68.5553   31.1365  -75.5427 H         1 UNK         0.0847 
     90 H90       -69.0454   29.7790  -74.5269 H         1 UNK         0.0847 
     91 H91       -70.7028   29.7320  -76.3433 H         1 UNK         0.3141 
     92 H92       -73.7288   30.1271  -77.9787 H         1 UNK         0.0743 
     93 H93       -71.0287   30.5693  -79.3708 H         1 UNK         0.0784 
     94 H94       -72.5094   29.9953  -80.1409 H         1 UNK         0.0784 
     95 H95       -72.4277   31.6261  -79.4981 H         1 UNK         0.0784 
     96 H96       -71.5623   28.3215  -78.4325 H         1 UNK         0.3213 
     97 H97       -71.9992   26.0611  -77.6302 H         1 UNK         0.0855 
     98 H98       -69.9434   27.2579  -76.7849 H         1 UNK         0.0814 
     99 H99       -70.0827   25.6918  -76.0156 H         1 UNK         0.0814 
    100 H100      -70.5409   27.1446  -75.1341 H         1 UNK         0.0814 
    101 H101      -73.5078   26.2480  -75.2112 H         1 UNK         0.3105 
    102 H102      -73.7403   22.6578  -74.8893 H         1 UNK         0.0547 
    103 H103      -72.4556   23.5374  -72.9760 H         1 UNK         0.0837 
    104 H104      -73.4685   24.9640  -72.8946 H         1 UNK         0.0837 
    105 H105      -74.1530   23.3708  -72.5646 H         1 UNK         0.0837 
    106 H106      -75.6567   23.4553  -75.6238 H         1 UNK         0.3020 
    107 H107      -77.6581   26.2802  -74.9933 H         1 UNK         0.1245 
    108 H108      -76.5024   25.0865  -77.5615 H         1 UNK         0.0781 
    109 H109      -76.3103   26.7368  -77.0462 H         1 UNK         0.0781 
    110 H110      -79.2904   28.4603  -78.5337 H         1 UNK         0.0836 
    111 H111      -77.5561   28.3044  -78.6452 H         1 UNK         0.0836 
    112 H112      -78.8181   24.4539  -74.6424 H         1 UNK         0.3022 
    113 H113      -79.1435   21.3305  -76.2793 H         1 UNK         0.0747 
    114 H114      -77.8599   20.8664  -74.1980 H         1 UNK         0.0793 
    115 H115      -78.7734   22.0897  -73.3287 H         1 UNK         0.0793 
    116 H116      -79.5808   20.6425  -73.9307 H         1 UNK         0.0793 
    117 H117      -80.7516   23.0059  -74.5143 H         1 UNK         0.3047 
    118 H118      -82.5252   24.6946  -76.8918 H         1 UNK         0.0822 
    119 H119      -83.6605   21.9488  -76.1232 H         1 UNK         0.0807 
    120 H120      -83.5478   22.5984  -77.7526 H         1 UNK         0.0807 
    121 H121      -84.6128   23.3605  -76.5847 H         1 UNK         0.0807 
    122 H122      -83.1180   23.4817  -74.2643 H         1 UNK         0.2946 
    123 H123      -83.2400   26.2387  -72.6510 H         1 UNK         0.1144 
    124 H124      -83.0261   24.3693  -71.0012 H         1 UNK         0.0793 
    125 H125      -82.1910   23.3859  -72.1934 H         1 UNK         0.0793 
    126 H126      -83.8787   23.8482  -72.4355 H         1 UNK         0.0793 
    127 H127      -81.3855   26.8352  -71.5753 H         1 UNK         0.2896 
@<TRIPOS>BOND
     1    1    2 1    
     2    1   67 1    
     3    1   68 1    
     4    1   69 1    
     5    2    3 2    
     6    2    4 am   BACKBONE|DICT|INTERRES
     7    4    5 1    
     8    4   70 1    
     9    5    6 1    
    10    5   65 1    
    11    5   71 1    
    12    6    7 1    
    13    6   72 1    
    14    6   73 1    
    15    7    8 1    
    16    8    9 1    
    17    8   74 1    
    18    8   75 1    
    19    9   10 ar   
    20    9   14 ar   
    21   10   11 ar   
    22   10   76 1    
    23   11   12 ar   
    24   11   48 1    
    25   12   13 ar   
    26   12   77 1    
    27   13   14 ar   
    28   13   15 1    
    29   14   78 1    
    30   15   16 1    
    31   15   79 1    
    32   15   80 1    
    33   16   17 1    
    34   17   18 1    
    35   17   81 1    
    36   17   82 1    
    37   18   19 1    
    38   18   22 1    
    39   18   83 1    
    40   19   20 am   BACKBONE|DICT|INTERRES
    41   19   21 2    
    42   20   84 1    
    43   20   85 1    
    44   22   23 am   BACKBONE|DICT|INTERRES
    45   22   86 1    
    46   23   24 2    
    47   23   25 1    
    48   25   26 1    
    49   25   27 1    
    50   25   87 1    
    51   26   88 1    
    52   26   89 1    
    53   26   90 1    
    54   27   28 am   BACKBONE|DICT|INTERRES
    55   27   91 1    
    56   28   29 2    
    57   28   30 1    
    58   30   31 1    
    59   30   32 1    
    60   30   92 1    
    61   31   93 1    
    62   31   94 1    
    63   31   95 1    
    64   32   33 am   BACKBONE|DICT|INTERRES
    65   32   96 1    
    66   33   34 2    
    67   33   35 1    
    68   35   36 1    
    69   35   37 1    
    70   35   97 1    
    71   36   98 1    
    72   36   99 1    
    73   36  100 1    
    74   37   38 am   BACKBONE|DICT|INTERRES
    75   37  101 1    
    76   38   39 2    
    77   38   40 1    
    78   40   41 1    
    79   40   42 1    
    80   40  102 1    
    81   41  103 1    
    82   41  104 1    
    83   41  105 1    
    84   42   43 am   BACKBONE|DICT|INTERRES
    85   42  106 1    
    86   43   44 2    
    87   43   45 1    
    88   45   46 1    
    89   45   49 1    
    90   45  107 1    
    91   46   47 1    
    92   46  108 1    
    93   46  109 1    
    94   47   48 1    
    95   48  110 1    
    96   48  111 1    
    97   49   50 am   BACKBONE|DICT|INTERRES
    98   49  112 1    
    99   50   51 2    
   100   50   52 1    
   101   52   53 1    
   102   52   54 1    
   103   52  113 1    
   104   53  114 1    
   105   53  115 1    
   106   53  116 1    
   107   54   55 am   BACKBONE|DICT|INTERRES
   108   54  117 1    
   109   55   56 2    
   110   55   57 1    
   111   57   58 1    
   112   57   59 1    
   113   57  118 1    
   114   58  119 1    
   115   58  120 1    
   116   58  121 1    
   117   59   60 am   BACKBONE|DICT|INTERRES
   118   59  122 1    
   119   60   61 2    
   120   60   62 1    
   121   62   63 1    
   122   62   64 1    
   123   62  123 1    
   124   63  124 1    
   125   63  125 1    
   126   63  126 1    
   127   64   65 am   BACKBONE|DICT|INTERRES
   128   64  127 1    
   129   65   66 2    
@<TRIPOS>SUBSTRUCTURE
     1 UNK         1 GROUP             0       ****    0 ROOT    
