@<TRIPOS>MOLECULE
3R135
127   129    1
SMALL
USER_CHARGES


@<TRIPOS>ATOM
      1 CA        -84.4078   26.1063  -70.1319 C.3       0 UNK        -0.1998 
      2 C         -83.3541   26.7190  -71.0424 C.2       0 UNK         0.4909 
      3 O         -83.5091   27.8624  -71.4716 O.2       0 UNK        -0.5240 
      4 N         -82.2827   25.9683  -71.3304 N.am      1 UNK        -0.4739 
      5 CA        -81.1758   26.3688  -72.2068 C.3       1 UNK         0.0864 
      6 C6        -80.0071   25.3541  -72.1395 C.3       11 UNK        -0.0881 
      7 S7        -79.0085   25.5486  -70.6269 S.3       11 UNK        -0.2682 
      8 C8        -77.3636   25.9414  -71.3117 C.3       11 UNK         0.0289 
      9 C9        -77.1780   27.4262  -71.6049 C.ar      11 UNK        -0.0687 
     10 C10       -77.8878   28.0484  -72.6361 C.ar      11 UNK        -0.0823 
     11 C11       -77.6671   29.3914  -72.9497 C.ar      11 UNK        -0.0830 
     12 C12       -76.7357   30.1254  -72.2101 C.ar      11 UNK        -0.1021 
     13 C13       -76.0239   29.5203  -71.1704 C.ar      11 UNK        -0.0753 
     14 C14       -76.2518   28.1735  -70.8711 C.ar      11 UNK        -0.0933 
     15 C15       -75.0051   30.3124  -70.3668 C.3       11 UNK         0.0166 
     16 S16       -73.3419   30.1779  -71.0904 S.3       11 UNK        -0.2615 
     17 C17       -73.2817   31.6681  -72.1487 C.3       11 UNK        -0.0865 
     18 CA        -72.1463   31.6459  -73.2054 C.3       10 UNK         0.0862 
     19 C         -70.7310   31.6504  -72.5499 C.2       10 UNK         0.5551 
     20 N         -69.9490   30.5800  -72.6461 N.am      10 UNK        -0.7319 
     21 O         -70.3364   32.6501  -71.9544 O.2       10 UNK        -0.5018 
     22 N         -72.3608   30.5871  -74.2016 N.am      10 UNK        -0.4509 
     23 C         -71.7326   30.5108  -75.3825 C.2       10 UNK         0.4899 
     24 O         -71.0252   31.4141  -75.8320 O.2       10 UNK        -0.4839 
     25 CA        -71.9176   29.2171  -76.2038 C.3       9 UNK         0.0222 
     26 CB        -70.6394   28.8292  -76.9757 C.3       9 UNK        -0.1966 
     27 N         -72.4144   28.0645  -75.4400 N.am      9 UNK        -0.4218 
     28 C         -71.8536   27.4819  -74.3679 C.2       9 UNK         0.5020 
     29 O         -70.8302   27.8904  -73.8155 O.2       9 UNK        -0.5274 
     30 CA        -72.5686   26.2404  -73.8099 C.3       8 UNK         0.0270 
     31 CB        -73.7724   26.6504  -72.9452 C.3       8 UNK        -0.1976 
     32 N         -73.0103   25.3161  -74.8573 N.am      8 UNK        -0.4313 
     33 C         -72.1913   24.6086  -75.6499 C.2       8 UNK         0.5041 
     34 O         -70.9626   24.6370  -75.5714 O.2       8 UNK        -0.5577 
     35 CA        -72.8539   23.7173  -76.7120 C.3       7 UNK         0.0284 
     36 CB        -73.3833   22.4145  -76.0887 C.3       7 UNK        -0.1958 
     37 N         -73.9396   24.4165  -77.3996 N.am      7 UNK        -0.4454 
     38 C         -73.7625   25.2948  -78.3967 C.2       7 UNK         0.5089 
     39 O         -72.6677   25.5556  -78.8957 O.2       7 UNK        -0.5125 
     40 CA        -75.0188   26.0116  -78.9261 C.3       6 UNK         0.0408 
     41 CB        -75.6109   25.2481  -80.1207 C.3       6 UNK        -0.1791 
     42 N         -76.0522   26.1941  -77.9026 N.am      6 UNK        -0.4762 
     43 C         -75.9255   27.0121  -76.8454 C.2       6 UNK         0.5007 
     44 O         -74.9323   27.7095  -76.6445 O.2       6 UNK        -0.5032 
     45 CA        -77.0552   26.9922  -75.7947 C.3       5 UNK         0.0783 
     46 C46       -78.1426   28.0535  -76.0948 C.3       11 UNK        -0.0857 
     47 S47       -77.6195   29.7579  -75.6965 S.3       11 UNK        -0.2512 
     48 C48       -78.4316   30.0463  -74.0908 C.3       11 UNK         0.0225 
     49 N         -77.6316   25.6517  -75.6256 N.am      5 UNK        -0.4615 
     50 C         -76.9320   24.5821  -75.2133 C.2       4 UNK         0.5053 
     51 O         -75.7635   24.6566  -74.8357 O.2       4 UNK        -0.5105 
     52 CA        -77.5929   23.1913  -75.2729 C.3       4 UNK         0.0263 
     53 CB        -77.8420   22.6346  -73.8628 C.3       4 UNK        -0.1981 
     54 N         -78.8331   23.1407  -76.0513 N.am      4 UNK        -0.4224 
     55 C         -78.9142   23.3303  -77.3766 C.2       3 UNK         0.4895 
     56 O         -77.9365   23.5356  -78.0969 O.2       3 UNK        -0.5091 
     57 CA        -80.3254   23.3518  -77.9940 C.3       3 UNK         0.0250 
     58 CB        -80.7067   21.9533  -78.5049 C.3       3 UNK        -0.1996 
     59 N         -81.3823   23.8493  -77.0996 N.am      3 UNK        -0.4254 
     60 C         -81.3924   25.0507  -76.5013 C.2       2 UNK         0.5004 
     61 O         -80.4593   25.8487  -76.5932 O.2       2 UNK        -0.5226 
     62 CA        -82.6233   25.4201  -75.6460 C.3       2 UNK         0.0269 
     63 CB        -83.8077   24.4420  -75.7894 C.3       2 UNK        -0.1926 
     64 N         -82.2554   25.5141  -74.2317 N.am      2 UNK        -0.4687 
     65 C         -81.6329   26.5586  -73.6661 C.2       1 UNK         0.5165 
     66 O         -81.4079   27.6250  -74.2383 O.2       1 UNK        -0.5079 
     67 H67       -84.5371   26.7207  -69.2413 H         1 UNK         0.0900 
     68 H68       -85.3648   26.0512  -70.6500 H         1 UNK         0.0900 
     69 H69       -84.1367   25.1001  -69.8126 H         1 UNK         0.0900 
     70 H70       -82.2042   25.0484  -70.9206 H         1 UNK         0.2959 
     71 H71       -80.8164   27.3423  -71.8640 H         1 UNK         0.1079 
     72 H72       -79.3546   25.4374  -73.0095 H         1 UNK         0.0837 
     73 H73       -80.3875   24.3315  -72.1669 H         1 UNK         0.0837 
     74 H74       -76.6150   25.6070  -70.5919 H         1 UNK         0.0685 
     75 H75       -77.1782   25.3610  -72.2161 H         1 UNK         0.0685 
     76 H76       -78.5987   27.4875  -73.2204 H         1 UNK         0.1434 
     77 H77       -76.5614   31.1656  -72.4477 H         1 UNK         0.1329 
     78 H78       -75.6901   27.7032  -70.0755 H         1 UNK         0.1335 
     79 H79       -74.9711   29.9352  -69.3436 H         1 UNK         0.0680 
     80 H80       -75.3021   31.3596  -70.2921 H         1 UNK         0.0680 
     81 H81       -74.2407   31.7842  -72.6547 H         1 UNK         0.1032 
     82 H82       -73.1806   32.5446  -71.5059 H         1 UNK         0.1032 
     83 H83       -72.2146   32.5910  -73.7478 H         1 UNK         0.0461 
     84 H84       -69.0352   30.5949  -72.2227 H         1 UNK         0.3453 
     85 H85       -70.2792   29.7401  -73.1093 H         1 UNK         0.3453 
     86 H86       -72.9078   29.7971  -73.8939 H         1 UNK         0.2984 
     87 H87       -72.6912   29.4402  -76.9396 H         1 UNK         0.0554 
     88 H88       -70.3352   29.6212  -77.6610 H         1 UNK         0.0847 
     89 H89       -70.7960   27.9302  -77.5726 H         1 UNK         0.0847 
     90 H90       -69.8029   28.6423  -76.3015 H         1 UNK         0.0847 
     91 H91       -73.2966   27.6912  -75.7868 H         1 UNK         0.3141 
     92 H92       -71.8596   25.7066  -73.1736 H         1 UNK         0.0743 
     93 H93       -73.4581   27.2875  -72.1179 H         1 UNK         0.0784 
     94 H94       -74.5168   27.2047  -73.5175 H         1 UNK         0.0784 
     95 H95       -74.2665   25.7804  -72.5123 H         1 UNK         0.0784 
     96 H96       -74.0148   25.1695  -74.9430 H         1 UNK         0.3213 
     97 H97       -72.0906   23.4489  -77.4462 H         1 UNK         0.0855 
     98 H98       -74.1416   22.6001  -75.3278 H         1 UNK         0.0814 
     99 H99       -72.5754   21.8591  -75.6105 H         1 UNK         0.0814 
    100 H100      -73.8200   21.7621  -76.8450 H         1 UNK         0.0814 
    101 H101      -74.8722   24.2900  -77.0338 H         1 UNK         0.3105 
    102 H102      -74.7123   27.0004  -79.2743 H         1 UNK         0.0547 
    103 H103      -76.4679   25.7724  -80.5434 H         1 UNK         0.0837 
    104 H104      -74.8735   25.1392  -80.9172 H         1 UNK         0.0837 
    105 H105      -75.9357   24.2455  -79.8396 H         1 UNK         0.0837 
    106 H106      -76.8773   25.6112  -77.9777 H         1 UNK         0.3020 
    107 H107      -76.5815   27.2450  -74.8451 H         1 UNK         0.1245 
    108 H108      -79.0462   27.8367  -75.5257 H         1 UNK         0.0781 
    109 H109      -78.4505   28.0130  -77.1414 H         1 UNK         0.0781 
    110 H110      -79.4616   29.6870  -74.1183 H         1 UNK         0.0836 
    111 H111      -78.4960   31.1225  -73.9231 H         1 UNK         0.0836 
    112 H112      -78.5895   25.5351  -75.9441 H         1 UNK         0.3022 
    113 H113      -76.8734   22.5327  -75.7642 H         1 UNK         0.0747 
    114 H114      -78.1589   21.5922  -73.9010 H         1 UNK         0.0793 
    115 H115      -76.9334   22.6708  -73.2595 H         1 UNK         0.0793 
    116 H116      -78.6076   23.1954  -73.3313 H         1 UNK         0.0793 
    117 H117      -79.6893   22.9822  -75.5409 H         1 UNK         0.3047 
    118 H118      -80.2855   24.0278  -78.8508 H         1 UNK         0.0822 
    119 H119      -79.9500   21.5681  -79.1901 H         1 UNK         0.0807 
    120 H120      -81.6514   21.9723  -79.0486 H         1 UNK         0.0807 
    121 H121      -80.8020   21.2363  -77.6884 H         1 UNK         0.0807 
    122 H122      -82.1826   23.2470  -76.9704 H         1 UNK         0.2946 
    123 H123      -82.9571   26.4016  -75.9912 H         1 UNK         0.1144 
    124 H124      -84.6727   24.7970  -75.2285 H         1 UNK         0.0793 
    125 H125      -83.5687   23.4433  -75.4218 H         1 UNK         0.0793 
    126 H126      -84.1243   24.3522  -76.8298 H         1 UNK         0.0793 
    127 H127      -82.4109   24.6901  -73.6694 H         1 UNK         0.2896 
@<TRIPOS>BOND
     1    1    2 1    
     2    1   67 1    
     3    1   68 1    
     4    1   69 1    
     5    2    3 2    
     6    2    4 am   BACKBONE|DICT|INTERRES
     7    4    5 1    
     8    4   70 1    
     9    5    6 1    
    10    5   65 1    
    11    5   71 1    
    12    6    7 1    
    13    6   72 1    
    14    6   73 1    
    15    7    8 1    
    16    8    9 1    
    17    8   74 1    
    18    8   75 1    
    19    9   10 ar   
    20    9   14 ar   
    21   10   11 ar   
    22   10   76 1    
    23   11   12 ar   
    24   11   48 1    
    25   12   13 ar   
    26   12   77 1    
    27   13   14 ar   
    28   13   15 1    
    29   14   78 1    
    30   15   16 1    
    31   15   79 1    
    32   15   80 1    
    33   16   17 1    
    34   17   18 1    
    35   17   81 1    
    36   17   82 1    
    37   18   19 1    
    38   18   22 1    
    39   18   83 1    
    40   19   20 am   BACKBONE|DICT|INTERRES
    41   19   21 2    
    42   20   84 1    
    43   20   85 1    
    44   22   23 am   BACKBONE|DICT|INTERRES
    45   22   86 1    
    46   23   24 2    
    47   23   25 1    
    48   25   26 1    
    49   25   27 1    
    50   25   87 1    
    51   26   88 1    
    52   26   89 1    
    53   26   90 1    
    54   27   28 am   BACKBONE|DICT|INTERRES
    55   27   91 1    
    56   28   29 2    
    57   28   30 1    
    58   30   31 1    
    59   30   32 1    
    60   30   92 1    
    61   31   93 1    
    62   31   94 1    
    63   31   95 1    
    64   32   33 am   BACKBONE|DICT|INTERRES
    65   32   96 1    
    66   33   34 2    
    67   33   35 1    
    68   35   36 1    
    69   35   37 1    
    70   35   97 1    
    71   36   98 1    
    72   36   99 1    
    73   36  100 1    
    74   37   38 am   BACKBONE|DICT|INTERRES
    75   37  101 1    
    76   38   39 2    
    77   38   40 1    
    78   40   41 1    
    79   40   42 1    
    80   40  102 1    
    81   41  103 1    
    82   41  104 1    
    83   41  105 1    
    84   42   43 am   BACKBONE|DICT|INTERRES
    85   42  106 1    
    86   43   44 2    
    87   43   45 1    
    88   45   46 1    
    89   45   49 1    
    90   45  107 1    
    91   46   47 1    
    92   46  108 1    
    93   46  109 1    
    94   47   48 1    
    95   48  110 1    
    96   48  111 1    
    97   49   50 am   BACKBONE|DICT|INTERRES
    98   49  112 1    
    99   50   51 2    
   100   50   52 1    
   101   52   53 1    
   102   52   54 1    
   103   52  113 1    
   104   53  114 1    
   105   53  115 1    
   106   53  116 1    
   107   54   55 am   BACKBONE|DICT|INTERRES
   108   54  117 1    
   109   55   56 2    
   110   55   57 1    
   111   57   58 1    
   112   57   59 1    
   113   57  118 1    
   114   58  119 1    
   115   58  120 1    
   116   58  121 1    
   117   59   60 am   BACKBONE|DICT|INTERRES
   118   59  122 1    
   119   60   61 2    
   120   60   62 1    
   121   62   63 1    
   122   62   64 1    
   123   62  123 1    
   124   63  124 1    
   125   63  125 1    
   126   63  126 1    
   127   64   65 am   BACKBONE|DICT|INTERRES
   128   64  127 1    
   129   65   66 2    
@<TRIPOS>SUBSTRUCTURE
     1 UNK         1 GROUP             0       ****    0 ROOT    
