@<TRIPOS>MOLECULE
3R135
127   129    1
SMALL
USER_CHARGES


@<TRIPOS>ATOM
      1 CA        -80.5722   29.9662  -70.6658 C.3       0 UNK        -0.1998 
      2 C         -81.4867   29.4474  -71.7622 C.2       0 UNK         0.4909 
      3 O         -82.6877   29.2912  -71.5391 O.2       0 UNK        -0.5240 
      4 N         -80.9254   29.1811  -72.9495 N.am      1 UNK        -0.4739 
      5 CA        -81.6596   28.6839  -74.1235 C.3       1 UNK         0.0864 
      6 C6        -80.8535   28.8144  -75.4439 C.3       11 UNK        -0.0881 
      7 S7        -80.0967   30.4586  -75.6887 S.3       11 UNK        -0.2682 
      8 C8        -78.3162   30.0669  -75.6250 C.3       11 UNK         0.0289 
      9 C9        -77.8831   29.5913  -74.2445 C.ar      11 UNK        -0.0687 
     10 C10       -77.7252   28.2266  -73.9812 C.ar      11 UNK        -0.0823 
     11 C11       -77.3692   27.7869  -72.7027 C.ar      11 UNK        -0.0830 
     12 C12       -77.1484   28.7250  -71.6904 C.ar      11 UNK        -0.1021 
     13 C13       -77.2866   30.0925  -71.9455 C.ar      11 UNK        -0.0753 
     14 C14       -77.6537   30.5193  -73.2248 C.ar      11 UNK        -0.0933 
     15 C15       -77.0933   31.1088  -70.8290 C.3       11 UNK         0.0166 
     16 S16       -75.4762   31.9359  -70.9134 S.3       11 UNK        -0.2615 
     17 C17       -74.3409   30.6169  -70.3596 C.3       11 UNK        -0.0865 
     18 CA        -73.2335   30.3181  -71.4034 C.3       10 UNK         0.0862 
     19 C         -72.1399   29.3658  -70.8301 C.2       10 UNK         0.5551 
     20 N         -71.7328   28.3051  -71.5181 N.am      10 UNK        -0.7319 
     21 O         -71.6372   29.6017  -69.7340 O.2       10 UNK        -0.5018 
     22 N         -73.7996   29.8762  -72.6876 N.am      10 UNK        -0.4509 
     23 C         -73.2278   30.0888  -73.8757 C.2       10 UNK         0.4899 
     24 O         -72.2250   30.7849  -74.0518 O.2       10 UNK        -0.4839 
     25 CA        -73.8847   29.3884  -75.0759 C.3       9 UNK         0.0222 
     26 CB        -74.6745   30.3974  -75.9229 C.3       9 UNK        -0.1966 
     27 N         -72.8991   28.7115  -75.9233 N.am      9 UNK        -0.4218 
     28 C         -72.0165   27.7860  -75.5210 C.2       9 UNK         0.5020 
     29 O         -71.9512   27.3592  -74.3657 O.2       9 UNK        -0.5274 
     30 CA        -71.0554   27.2475  -76.5972 C.3       8 UNK         0.0270 
     31 CB        -70.1482   26.1172  -76.0748 C.3       8 UNK        -0.1976 
     32 N         -71.7791   26.7702  -77.7786 N.am      8 UNK        -0.4313 
     33 C         -72.1894   27.5407  -78.7958 C.2       8 UNK         0.5041 
     34 O         -72.0376   28.7630  -78.8163 O.2       8 UNK        -0.5577 
     35 CA        -72.8920   26.8531  -79.9815 C.3       7 UNK         0.0284 
     36 CB        -71.8992   26.6298  -81.1339 C.3       7 UNK        -0.1958 
     37 N         -73.5120   25.5744  -79.6260 N.am      7 UNK        -0.4454 
     38 C         -74.6371   25.4561  -78.9092 C.2       7 UNK         0.5089 
     39 O         -75.3057   26.4199  -78.5304 O.2       7 UNK        -0.5125 
     40 CA        -75.0950   24.0331  -78.5261 C.3       6 UNK         0.0408 
     41 CB        -74.1580   22.9001  -79.0043 C.3       6 UNK        -0.1791 
     42 N         -75.3329   23.9320  -77.0831 N.am      6 UNK        -0.4762 
     43 C         -74.4481   24.1861  -76.1032 C.2       6 UNK         0.5007 
     44 O         -73.2620   24.4449  -76.3121 O.2       6 UNK        -0.5032 
     45 CA        -74.9662   24.1766  -74.6477 C.3       5 UNK         0.0783 
     46 C46       -75.1389   25.6314  -74.1467 C.3       11 UNK        -0.0857 
     47 S47       -75.5362   25.7278  -72.3704 S.3       11 UNK        -0.2512 
     48 C48       -77.2625   26.2999  -72.3953 C.3       11 UNK         0.0225 
     49 N         -76.2006   23.3997  -74.4927 N.am      5 UNK        -0.4615 
     50 C         -76.2897   22.0664  -74.5766 C.2       4 UNK         0.5053 
     51 O         -75.3165   21.3239  -74.7071 O.2       4 UNK        -0.5105 
     52 CA        -77.7034   21.4542  -74.5230 C.3       4 UNK         0.0263 
     53 CB        -77.9940   20.9104  -73.1149 C.3       4 UNK        -0.1981 
     54 N         -78.7888   22.3649  -74.9112 N.am      4 UNK        -0.4224 
     55 C         -78.9220   22.9959  -76.0857 C.2       3 UNK         0.4895 
     56 O         -78.1023   22.9082  -76.9994 O.2       3 UNK        -0.5091 
     57 CA        -80.1407   23.9187  -76.2732 C.3       3 UNK         0.0250 
     58 CB        -81.2845   23.1785  -76.9933 C.3       3 UNK        -0.1996 
     59 N         -80.6184   24.5912  -75.0528 N.am      3 UNK        -0.4254 
     60 C         -81.2058   24.0668  -73.9658 C.2       2 UNK         0.5004 
     61 O         -81.3800   22.8588  -73.8050 O.2       2 UNK        -0.5226 
     62 CA        -81.6256   25.0358  -72.8424 C.3       2 UNK         0.0269 
     63 CB        -80.9112   24.6811  -71.5265 C.3       2 UNK        -0.1926 
     64 N         -81.3731   26.4491  -73.1450 N.am      2 UNK        -0.4687 
     65 C         -82.1249   27.2230  -73.9429 C.2       1 UNK         0.5165 
     66 O         -83.1246   26.8207  -74.5383 O.2       1 UNK        -0.5079 
     67 H67       -81.1249   30.1156  -69.7385 H         1 UNK         0.0900 
     68 H68       -80.1372   30.9212  -70.9572 H         1 UNK         0.0900 
     69 H69       -79.7686   29.2578  -70.4684 H         1 UNK         0.0900 
     70 H70       -79.9401   29.3640  -73.0925 H         1 UNK         0.2959 
     71 H71       -82.5610   29.2930  -74.2239 H         1 UNK         0.1079 
     72 H72       -80.0793   28.0501  -75.5094 H         1 UNK         0.0837 
     73 H73       -81.5123   28.6301  -76.2948 H         1 UNK         0.0837 
     74 H74       -78.0778   29.3206  -76.3847 H         1 UNK         0.0685 
     75 H75       -77.7561   30.9631  -75.8944 H         1 UNK         0.0685 
     76 H76       -77.8973   27.5060  -74.7684 H         1 UNK         0.1434 
     77 H77       -76.8839   28.3855  -70.6981 H         1 UNK         0.1329 
     78 H78       -77.7762   31.5757  -73.4227 H         1 UNK         0.1335 
     79 H79       -77.8707   31.8708  -70.8974 H         1 UNK         0.0680 
     80 H80       -77.2152   30.6410  -69.8507 H         1 UNK         0.0680 
     81 H81       -73.8998   30.9509  -69.4185 H         1 UNK         0.1032 
     82 H82       -74.8950   29.7084  -70.1214 H         1 UNK         0.1032 
     83 H83       -72.7132   31.2619  -71.5777 H         1 UNK         0.0461 
     84 H84       -72.0819   28.1074  -72.4492 H         1 UNK         0.3453 
     85 H85       -71.0231   27.7110  -71.1212 H         1 UNK         0.3453 
     86 H86       -74.6313   29.3056  -72.6323 H         1 UNK         0.2984 
     87 H87       -74.5792   28.6311  -74.7068 H         1 UNK         0.0554 
     88 H88       -75.2455   29.8983  -76.7060 H         1 UNK         0.0847 
     89 H89       -75.3813   30.9528  -75.3056 H         1 UNK         0.0847 
     90 H90       -74.0171   31.1277  -76.3965 H         1 UNK         0.0847 
     91 H91       -72.8425   29.0069  -76.8920 H         1 UNK         0.3141 
     92 H92       -70.4074   28.0773  -76.8874 H         1 UNK         0.0743 
     93 H93       -69.5502   26.4565  -75.2279 H         1 UNK         0.0784 
     94 H94       -70.7277   25.2562  -75.7397 H         1 UNK         0.0784 
     95 H95       -69.4544   25.7769  -76.8436 H         1 UNK         0.0784 
     96 H96       -72.0452   25.7936  -77.7692 H         1 UNK         0.3213 
     97 H97       -73.6743   27.5295  -80.3335 H         1 UNK         0.0855 
     98 H98       -71.4415   27.5713  -81.4413 H         1 UNK         0.0814 
     99 H99       -72.3947   26.2122  -82.0106 H         1 UNK         0.0814 
    100 H100      -71.0918   25.9540  -80.8486 H         1 UNK         0.0814 
    101 H101      -73.0230   24.7348  -79.9014 H         1 UNK         0.3105 
    102 H102      -76.0634   23.8852  -79.0061 H         1 UNK         0.0547 
    103 H103      -74.0664   22.8924  -80.0911 H         1 UNK         0.0837 
    104 H104      -73.1557   22.9820  -78.5825 H         1 UNK         0.0837 
    105 H105      -74.5525   21.9255  -78.7162 H         1 UNK         0.0837 
    106 H106      -76.2883   23.7015  -76.8269 H         1 UNK         0.3020 
    107 H107      -74.1903   23.6974  -74.0459 H         1 UNK         0.1245 
    108 H108      -74.2138   26.1879  -74.2874 H         1 UNK         0.0781 
    109 H109      -75.8926   26.1561  -74.7345 H         1 UNK         0.0781 
    110 H110      -77.7037   26.1044  -71.4169 H         1 UNK         0.0836 
    111 H111      -77.8395   25.7103  -73.1088 H         1 UNK         0.0836 
    112 H112      -77.0505   23.9246  -74.3636 H         1 UNK         0.3022 
    113 H113      -77.7166   20.6179  -75.2249 H         1 UNK         0.0747 
    114 H114      -78.9488   20.3851  -73.0810 H         1 UNK         0.0793 
    115 H115      -77.2254   20.2023  -72.8015 H         1 UNK         0.0793 
    116 H116      -78.0242   21.7096  -72.3731 H         1 UNK         0.0793 
    117 H117      -79.5639   22.4586  -74.2603 H         1 UNK         0.3047 
    118 H118      -79.8106   24.7217  -76.9345 H         1 UNK         0.0822 
    119 H119      -82.1226   23.8454  -77.1958 H         1 UNK         0.0807 
    120 H120      -81.6588   22.3365  -76.4104 H         1 UNK         0.0807 
    121 H121      -80.9475   22.7818  -77.9521 H         1 UNK         0.0807 
    122 H122      -80.5042   25.5936  -75.0498 H         1 UNK         0.2946 
    123 H123      -82.6999   24.9009  -72.6957 H         1 UNK         0.1144 
    124 H124      -81.2250   25.3374  -70.7144 H         1 UNK         0.0793 
    125 H125      -79.8278   24.7546  -71.6201 H         1 UNK         0.0793 
    126 H126      -81.1409   23.6600  -71.2183 H         1 UNK         0.0793 
    127 H127      -80.5846   26.8798  -72.6842 H         1 UNK         0.2896 
@<TRIPOS>BOND
     1    1    2 1    
     2    1   67 1    
     3    1   68 1    
     4    1   69 1    
     5    2    3 2    
     6    2    4 am   BACKBONE|DICT|INTERRES
     7    4    5 1    
     8    4   70 1    
     9    5    6 1    
    10    5   65 1    
    11    5   71 1    
    12    6    7 1    
    13    6   72 1    
    14    6   73 1    
    15    7    8 1    
    16    8    9 1    
    17    8   74 1    
    18    8   75 1    
    19    9   10 ar   
    20    9   14 ar   
    21   10   11 ar   
    22   10   76 1    
    23   11   12 ar   
    24   11   48 1    
    25   12   13 ar   
    26   12   77 1    
    27   13   14 ar   
    28   13   15 1    
    29   14   78 1    
    30   15   16 1    
    31   15   79 1    
    32   15   80 1    
    33   16   17 1    
    34   17   18 1    
    35   17   81 1    
    36   17   82 1    
    37   18   19 1    
    38   18   22 1    
    39   18   83 1    
    40   19   20 am   BACKBONE|DICT|INTERRES
    41   19   21 2    
    42   20   84 1    
    43   20   85 1    
    44   22   23 am   BACKBONE|DICT|INTERRES
    45   22   86 1    
    46   23   24 2    
    47   23   25 1    
    48   25   26 1    
    49   25   27 1    
    50   25   87 1    
    51   26   88 1    
    52   26   89 1    
    53   26   90 1    
    54   27   28 am   BACKBONE|DICT|INTERRES
    55   27   91 1    
    56   28   29 2    
    57   28   30 1    
    58   30   31 1    
    59   30   32 1    
    60   30   92 1    
    61   31   93 1    
    62   31   94 1    
    63   31   95 1    
    64   32   33 am   BACKBONE|DICT|INTERRES
    65   32   96 1    
    66   33   34 2    
    67   33   35 1    
    68   35   36 1    
    69   35   37 1    
    70   35   97 1    
    71   36   98 1    
    72   36   99 1    
    73   36  100 1    
    74   37   38 am   BACKBONE|DICT|INTERRES
    75   37  101 1    
    76   38   39 2    
    77   38   40 1    
    78   40   41 1    
    79   40   42 1    
    80   40  102 1    
    81   41  103 1    
    82   41  104 1    
    83   41  105 1    
    84   42   43 am   BACKBONE|DICT|INTERRES
    85   42  106 1    
    86   43   44 2    
    87   43   45 1    
    88   45   46 1    
    89   45   49 1    
    90   45  107 1    
    91   46   47 1    
    92   46  108 1    
    93   46  109 1    
    94   47   48 1    
    95   48  110 1    
    96   48  111 1    
    97   49   50 am   BACKBONE|DICT|INTERRES
    98   49  112 1    
    99   50   51 2    
   100   50   52 1    
   101   52   53 1    
   102   52   54 1    
   103   52  113 1    
   104   53  114 1    
   105   53  115 1    
   106   53  116 1    
   107   54   55 am   BACKBONE|DICT|INTERRES
   108   54  117 1    
   109   55   56 2    
   110   55   57 1    
   111   57   58 1    
   112   57   59 1    
   113   57  118 1    
   114   58  119 1    
   115   58  120 1    
   116   58  121 1    
   117   59   60 am   BACKBONE|DICT|INTERRES
   118   59  122 1    
   119   60   61 2    
   120   60   62 1    
   121   62   63 1    
   122   62   64 1    
   123   62  123 1    
   124   63  124 1    
   125   63  125 1    
   126   63  126 1    
   127   64   65 am   BACKBONE|DICT|INTERRES
   128   64  127 1    
   129   65   66 2    
@<TRIPOS>SUBSTRUCTURE
     1 UNK         1 GROUP             0       ****    0 ROOT    
