@<TRIPOS>MOLECULE
3R135
127   129    1
SMALL
USER_CHARGES


@<TRIPOS>ATOM
      1 CA        -77.7928   21.6156  -75.4432 C.3       0 UNK        -0.1998 
      2 C         -77.8097   22.1947  -74.0362 C.2       0 UNK         0.4909 
      3 O         -77.5403   21.4768  -73.0729 O.2       0 UNK        -0.5240 
      4 N         -78.1237   23.4885  -73.9184 N.am      1 UNK        -0.4739 
      5 CA        -78.2569   24.2122  -72.6480 C.3       1 UNK         0.0864 
      6 C6        -77.8054   25.6877  -72.7714 C.3       11 UNK        -0.0881 
      7 S7        -76.0490   25.8001  -73.2434 S.3       11 UNK        -0.2682 
      8 C8        -75.4983   27.2818  -72.3407 C.3       11 UNK         0.0289 
      9 C9        -76.0797   28.5911  -72.8684 C.ar      11 UNK        -0.0687 
     10 C10       -76.3287   28.7947  -74.2314 C.ar      11 UNK        -0.0823 
     11 C11       -76.8234   30.0169  -74.6978 C.ar      11 UNK        -0.0830 
     12 C12       -77.0373   31.0566  -73.7867 C.ar      11 UNK        -0.1021 
     13 C13       -76.7754   30.8755  -72.4256 C.ar      11 UNK        -0.0753 
     14 C14       -76.3129   29.6367  -71.9737 C.ar      11 UNK        -0.0933 
     15 C15       -77.0094   32.0084  -71.4365 C.3       11 UNK         0.0166 
     16 S16       -75.5139   32.4140  -70.4767 S.3       11 UNK        -0.2615 
     17 C17       -74.4798   33.3099  -71.6914 C.3       11 UNK        -0.0865 
     18 CA        -73.1456   32.6066  -72.0673 C.3       10 UNK         0.0862 
     19 C         -72.2209   32.3471  -70.8379 C.2       10 UNK         0.5551 
     20 N         -71.8125   31.1149  -70.5563 N.am      10 UNK        -0.7319 
     21 O         -71.8563   33.2882  -70.1369 O.2       10 UNK        -0.5018 
     22 N         -73.3652   31.4508  -72.9520 N.am      10 UNK        -0.4509 
     23 C         -72.4300   30.9293  -73.7567 C.2       10 UNK         0.4899 
     24 O         -71.2862   31.3755  -73.8714 O.2       10 UNK        -0.4839 
     25 CA        -72.8621   29.7323  -74.6134 C.3       9 UNK         0.0222 
     26 CB        -73.2704   30.1934  -76.0207 C.3       9 UNK        -0.1966 
     27 N         -71.8190   28.7155  -74.7247 N.am      9 UNK        -0.4218 
     28 C         -71.3792   27.9429  -73.7248 C.2       9 UNK         0.5020 
     29 O         -71.7984   28.0263  -72.5681 O.2       9 UNK        -0.5274 
     30 CA        -70.3145   26.8842  -74.0883 C.3       8 UNK         0.0270 
     31 CB        -70.0417   25.9010  -72.9339 C.3       8 UNK        -0.1976 
     32 N         -70.6745   26.1162  -75.2868 N.am      8 UNK        -0.4313 
     33 C         -70.5348   26.5339  -76.5524 C.2       8 UNK         0.5041 
     34 O         -70.0605   27.6301  -76.8539 O.2       8 UNK        -0.5577 
     35 CA        -71.0453   25.6004  -77.6666 C.3       7 UNK         0.0284 
     36 CB        -69.9165   24.6759  -78.1506 C.3       7 UNK        -0.1958 
     37 N         -72.2117   24.7920  -77.2883 N.am      7 UNK        -0.4454 
     38 C         -73.4076   25.2916  -76.9467 C.2       7 UNK         0.5089 
     39 O         -73.6509   26.5003  -76.8943 O.2       7 UNK        -0.5125 
     40 CA        -74.4986   24.2653  -76.5830 C.3       6 UNK         0.0408 
     41 CB        -74.1246   23.5035  -75.2989 C.3       6 UNK        -0.1791 
     42 N         -75.7760   24.9487  -76.3747 N.am      6 UNK        -0.4762 
     43 C         -76.6332   25.2699  -77.3504 C.2       6 UNK         0.5007 
     44 O         -76.5700   24.8213  -78.4980 O.2       6 UNK        -0.5032 
     45 CA        -77.7009   26.3243  -77.0041 C.3       5 UNK         0.0783 
     46 C46       -77.2363   27.7201  -77.4884 C.3       11 UNK        -0.0857 
     47 S47       -78.3109   29.0615  -76.8713 S.3       11 UNK        -0.2512 
     48 C48       -77.0966   30.2372  -76.1830 C.3       11 UNK         0.0225 
     49 N         -78.9783   25.9480  -77.6095 N.am      5 UNK        -0.4615 
     50 C         -79.8515   25.0954  -77.0700 C.2       4 UNK         0.5053 
     51 O         -79.7075   24.5672  -75.9628 O.2       4 UNK        -0.5105 
     52 CA        -81.0784   24.7571  -77.9241 C.3       4 UNK         0.0263 
     53 CB        -80.7552   23.6181  -78.9053 C.3       4 UNK        -0.1981 
     54 N         -82.1542   24.3335  -77.0358 N.am      4 UNK        -0.4224 
     55 C         -83.4070   24.8027  -77.0356 C.2       3 UNK         0.4895 
     56 O         -83.8521   25.5760  -77.8848 O.2       3 UNK        -0.5091 
     57 CA        -84.3262   24.3369  -75.8887 C.3       3 UNK         0.0250 
     58 CB        -85.2834   23.2384  -76.3803 C.3       3 UNK        -0.1996 
     59 N         -83.6002   23.8482  -74.7096 N.am      3 UNK        -0.4254 
     60 C         -82.8636   24.6117  -73.8895 C.2       2 UNK         0.5004 
     61 O         -82.7473   25.8315  -74.0138 O.2       2 UNK        -0.5226 
     62 CA        -82.0999   23.9049  -72.7623 C.3       2 UNK         0.0269 
     63 CB        -82.4730   22.4200  -72.5571 C.3       2 UNK        -0.1926 
     64 N         -80.6728   24.0203  -73.0476 N.am      2 UNK        -0.4687 
     65 C         -79.7049   24.1283  -72.1286 C.2       1 UNK         0.5165 
     66 O         -79.9153   24.1475  -70.9148 O.2       1 UNK        -0.5079 
     67 H67       -77.9193   22.3876  -76.2024 H         1 UNK         0.0900 
     68 H68       -78.5959   20.8885  -75.5594 H         1 UNK         0.0900 
     69 H69       -76.8450   21.1121  -75.6315 H         1 UNK         0.0900 
     70 H70       -78.4318   23.9930  -74.7451 H         1 UNK         0.2959 
     71 H71       -77.6253   23.7333  -71.8959 H         1 UNK         0.1079 
     72 H72       -78.4053   26.2237  -73.5093 H         1 UNK         0.0837 
     73 H73       -77.9488   26.2088  -71.8226 H         1 UNK         0.0837 
     74 H74       -75.7328   27.1540  -71.2828 H         1 UNK         0.0685 
     75 H75       -74.4119   27.3392  -72.4098 H         1 UNK         0.0685 
     76 H76       -76.1198   28.0029  -74.9329 H         1 UNK         0.1434 
     77 H77       -77.4066   32.0109  -74.1371 H         1 UNK         0.1329 
     78 H78       -76.1131   29.4966  -70.9198 H         1 UNK         0.1335 
     79 H79       -77.3725   32.9067  -71.9385 H         1 UNK         0.0680 
     80 H80       -77.7959   31.7062  -70.7436 H         1 UNK         0.0680 
     81 H81       -74.2643   34.2943  -71.2716 H         1 UNK         0.1032 
     82 H82       -75.0595   33.5078  -72.5942 H         1 UNK         0.1032 
     83 H83       -72.5952   33.3337  -72.6679 H         1 UNK         0.0461 
     84 H84       -72.0878   30.3387  -71.1388 H         1 UNK         0.3453 
     85 H85       -71.2112   30.9626  -69.7624 H         1 UNK         0.3453 
     86 H86       -74.2790   31.0208  -72.9011 H         1 UNK         0.2984 
     87 H87       -73.7182   29.2602  -74.1371 H         1 UNK         0.0554 
     88 H88       -73.6856   29.3691  -76.6014 H         1 UNK         0.0847 
     89 H89       -72.4225   30.6010  -76.5726 H         1 UNK         0.0847 
     90 H90       -74.0296   30.9745  -75.9703 H         1 UNK         0.0847 
     91 H91       -71.3831   28.5926  -75.6327 H         1 UNK         0.3141 
     92 H92       -69.3869   27.4256  -74.2868 H         1 UNK         0.0743 
     93 H93       -69.7067   26.4296  -72.0403 H         1 UNK         0.0784 
     94 H94       -69.2602   25.1873  -73.1956 H         1 UNK         0.0784 
     95 H95       -70.9361   25.3380  -72.6639 H         1 UNK         0.0784 
     96 H96       -71.1117   25.2197  -75.1325 H         1 UNK         0.3213 
     97 H97       -71.3462   26.2352  -78.5032 H         1 UNK         0.0855 
     98 H98       -69.0450   25.2546  -78.4607 H         1 UNK         0.0814 
     99 H99       -70.2290   24.0820  -79.0097 H         1 UNK         0.0814 
    100 H100      -69.5897   23.9906  -77.3675 H         1 UNK         0.0814 
    101 H101      -72.0950   23.7889  -77.3154 H         1 UNK         0.3105 
    102 H102      -74.5935   23.5489  -77.4016 H         1 UNK         0.0547 
    103 H103      -73.8827   24.1813  -74.4796 H         1 UNK         0.0837 
    104 H104      -73.2558   22.8639  -75.4565 H         1 UNK         0.0837 
    105 H105      -74.9376   22.8585  -74.9669 H         1 UNK         0.0837 
    106 H106      -75.8838   25.3783  -75.4639 H         1 UNK         0.3020 
    107 H107      -77.8212   26.3559  -75.9191 H         1 UNK         0.1245 
    108 H108      -77.2272   27.7652  -78.5793 H         1 UNK         0.0781 
    109 H109      -76.2059   27.9112  -77.1830 H         1 UNK         0.0781 
    110 H110      -77.4847   31.2437  -76.3466 H         1 UNK         0.0836 
    111 H111      -76.1646   30.1869  -76.7454 H         1 UNK         0.0836 
    112 H112      -79.1492   26.3074  -78.5372 H         1 UNK         0.3022 
    113 H113      -81.3706   25.6495  -78.4819 H         1 UNK         0.0747 
    114 H114      -81.6230   23.3638  -79.5140 H         1 UNK         0.0793 
    115 H115      -79.9526   23.9023  -79.5872 H         1 UNK         0.0793 
    116 H116      -80.4359   22.7145  -78.3838 H         1 UNK         0.0793 
    117 H117      -81.8585   23.7529  -76.2639 H         1 UNK         0.3047 
    118 H118      -84.9227   25.1993  -75.5827 H         1 UNK         0.0822 
    119 H119      -85.9949   22.9544  -75.6046 H         1 UNK         0.0807 
    120 H120      -84.7451   22.3415  -76.6893 H         1 UNK         0.0807 
    121 H121      -85.8634   23.5815  -77.2383 H         1 UNK         0.0807 
    122 H122      -83.6447   22.8552  -74.5299 H         1 UNK         0.2946 
    123 H123      -82.3356   24.4506  -71.8455 H         1 UNK         0.1144 
    124 H124      -83.5415   22.3005  -72.3721 H         1 UNK         0.0793 
    125 H125      -81.9561   22.0069  -71.6906 H         1 UNK         0.0793 
    126 H126      -82.2057   21.8053  -73.4175 H         1 UNK         0.0793 
    127 H127      -80.4144   24.0841  -74.0266 H         1 UNK         0.2896 
@<TRIPOS>BOND
     1    1    2 1    
     2    1   67 1    
     3    1   68 1    
     4    1   69 1    
     5    2    3 2    
     6    2    4 am   BACKBONE|DICT|INTERRES
     7    4    5 1    
     8    4   70 1    
     9    5    6 1    
    10    5   65 1    
    11    5   71 1    
    12    6    7 1    
    13    6   72 1    
    14    6   73 1    
    15    7    8 1    
    16    8    9 1    
    17    8   74 1    
    18    8   75 1    
    19    9   10 ar   
    20    9   14 ar   
    21   10   11 ar   
    22   10   76 1    
    23   11   12 ar   
    24   11   48 1    
    25   12   13 ar   
    26   12   77 1    
    27   13   14 ar   
    28   13   15 1    
    29   14   78 1    
    30   15   16 1    
    31   15   79 1    
    32   15   80 1    
    33   16   17 1    
    34   17   18 1    
    35   17   81 1    
    36   17   82 1    
    37   18   19 1    
    38   18   22 1    
    39   18   83 1    
    40   19   20 am   BACKBONE|DICT|INTERRES
    41   19   21 2    
    42   20   84 1    
    43   20   85 1    
    44   22   23 am   BACKBONE|DICT|INTERRES
    45   22   86 1    
    46   23   24 2    
    47   23   25 1    
    48   25   26 1    
    49   25   27 1    
    50   25   87 1    
    51   26   88 1    
    52   26   89 1    
    53   26   90 1    
    54   27   28 am   BACKBONE|DICT|INTERRES
    55   27   91 1    
    56   28   29 2    
    57   28   30 1    
    58   30   31 1    
    59   30   32 1    
    60   30   92 1    
    61   31   93 1    
    62   31   94 1    
    63   31   95 1    
    64   32   33 am   BACKBONE|DICT|INTERRES
    65   32   96 1    
    66   33   34 2    
    67   33   35 1    
    68   35   36 1    
    69   35   37 1    
    70   35   97 1    
    71   36   98 1    
    72   36   99 1    
    73   36  100 1    
    74   37   38 am   BACKBONE|DICT|INTERRES
    75   37  101 1    
    76   38   39 2    
    77   38   40 1    
    78   40   41 1    
    79   40   42 1    
    80   40  102 1    
    81   41  103 1    
    82   41  104 1    
    83   41  105 1    
    84   42   43 am   BACKBONE|DICT|INTERRES
    85   42  106 1    
    86   43   44 2    
    87   43   45 1    
    88   45   46 1    
    89   45   49 1    
    90   45  107 1    
    91   46   47 1    
    92   46  108 1    
    93   46  109 1    
    94   47   48 1    
    95   48  110 1    
    96   48  111 1    
    97   49   50 am   BACKBONE|DICT|INTERRES
    98   49  112 1    
    99   50   51 2    
   100   50   52 1    
   101   52   53 1    
   102   52   54 1    
   103   52  113 1    
   104   53  114 1    
   105   53  115 1    
   106   53  116 1    
   107   54   55 am   BACKBONE|DICT|INTERRES
   108   54  117 1    
   109   55   56 2    
   110   55   57 1    
   111   57   58 1    
   112   57   59 1    
   113   57  118 1    
   114   58  119 1    
   115   58  120 1    
   116   58  121 1    
   117   59   60 am   BACKBONE|DICT|INTERRES
   118   59  122 1    
   119   60   61 2    
   120   60   62 1    
   121   62   63 1    
   122   62   64 1    
   123   62  123 1    
   124   63  124 1    
   125   63  125 1    
   126   63  126 1    
   127   64   65 am   BACKBONE|DICT|INTERRES
   128   64  127 1    
   129   65   66 2    
@<TRIPOS>SUBSTRUCTURE
     1 UNK         1 GROUP             0       ****    0 ROOT    
