@<TRIPOS>MOLECULE
3R135
127   129    1
SMALL
USER_CHARGES


@<TRIPOS>ATOM
      1 CA        -80.4247   22.3459  -71.4865 C.3       0 UNK        -0.1998 
      2 C         -81.0705   23.4423  -72.3189 C.2       0 UNK         0.4909 
      3 O         -81.4802   23.1869  -73.4520 O.2       0 UNK        -0.5240 
      4 N         -81.1580   24.6601  -71.7655 N.am      1 UNK        -0.4739 
      5 CA        -81.7134   25.8622  -72.4005 C.3       1 UNK         0.0864 
      6 C6        -81.7314   27.1135  -71.4611 C.3       11 UNK        -0.0881 
      7 S7        -80.6220   27.1271  -69.9958 S.3       11 UNK        -0.2682 
      8 C8        -78.9351   27.0087  -70.6744 C.3       11 UNK         0.0289 
      9 C9        -78.3346   28.3470  -71.0839 C.ar      11 UNK        -0.0687 
     10 C10       -78.7566   28.9834  -72.2531 C.ar      11 UNK        -0.0823 
     11 C11       -78.1406   30.1585  -72.6910 C.ar      11 UNK        -0.0830 
     12 C12       -77.0903   30.7005  -71.9468 C.ar      11 UNK        -0.1021 
     13 C13       -76.6598   30.0801  -70.7704 C.ar      11 UNK        -0.0753 
     14 C14       -77.2969   28.9123  -70.3356 C.ar      11 UNK        -0.0933 
     15 C15       -75.4937   30.6704  -69.9872 C.3       11 UNK         0.0166 
     16 S16       -74.1332   29.4864  -69.7071 S.3       11 UNK        -0.2615 
     17 C17       -73.7243   28.9133  -71.3947 C.3       11 UNK        -0.0865 
     18 CA        -72.7868   29.8523  -72.2010 C.3       10 UNK         0.0862 
     19 C         -71.3333   29.8733  -71.6293 C.2       10 UNK         0.5551 
     20 N         -70.3519   29.2479  -72.2707 N.am      10 UNK        -0.7319 
     21 O         -71.0838   30.4892  -70.5964 O.2       10 UNK        -0.5018 
     22 N         -72.8676   29.5160  -73.6299 N.am      10 UNK        -0.4509 
     23 C         -72.3709   30.2446  -74.6384 C.2       10 UNK         0.4899 
     24 O         -71.9327   31.3878  -74.5035 O.2       10 UNK        -0.4839 
     25 CA        -72.3471   29.5663  -76.0275 C.3       9 UNK         0.0222 
     26 CB        -71.2006   30.0872  -76.9201 C.3       9 UNK        -0.1966 
     27 N         -72.3348   28.0919  -75.9654 N.am      9 UNK        -0.4218 
     28 C         -71.4028   27.3283  -75.3702 C.2       9 UNK         0.5020 
     29 O         -70.3907   27.7884  -74.8393 O.2       9 UNK        -0.5274 
     30 CA        -71.6450   25.8160  -75.2636 C.3       8 UNK         0.0270 
     31 CB        -72.0055   25.4523  -73.8116 C.3       8 UNK        -0.1976 
     32 N         -72.6952   25.3028  -76.1485 N.am      8 UNK        -0.4313 
     33 C         -72.4504   24.6526  -77.2942 C.2       8 UNK         0.5041 
     34 O         -71.3382   24.5859  -77.8204 O.2       8 UNK        -0.5577 
     35 CA        -73.6279   23.9022  -77.9394 C.3       7 UNK         0.0284 
     36 CB        -74.0174   22.6738  -77.1000 C.3       7 UNK        -0.1958 
     37 N         -74.8024   24.7456  -78.1504 N.am      7 UNK        -0.4454 
     38 C         -74.8952   25.6823  -79.1035 C.2       7 UNK         0.5089 
     39 O         -74.0057   25.9242  -79.9200 O.2       7 UNK        -0.5125 
     40 CA        -76.2030   26.4921  -79.1568 C.3       6 UNK         0.0408 
     41 CB        -77.2606   25.7552  -79.9934 C.3       6 UNK        -0.1791 
     42 N         -76.7553   26.7979  -77.8354 N.am      6 UNK        -0.4762 
     43 C         -76.1318   27.5284  -76.8990 C.2       6 UNK         0.5007 
     44 O         -75.0152   28.0213  -77.0466 O.2       6 UNK        -0.5032 
     45 CA        -76.8565   27.6795  -75.5484 C.3       5 UNK         0.0783 
     46 C46       -78.0609   28.6483  -75.6726 C.3       11 UNK        -0.0857 
     47 S47       -77.5778   30.3853  -75.4007 S.3       11 UNK        -0.2512 
     48 C48       -78.6055   30.8431  -73.9679 C.3       11 UNK         0.0225 
     49 N         -77.2387   26.3752  -74.9973 N.am      5 UNK        -0.4615 
     50 C         -76.3947   25.3646  -74.7426 C.2       4 UNK         0.5053 
     51 O         -75.1732   25.4449  -74.8627 O.2       4 UNK        -0.5105 
     52 CA        -77.0153   24.0145  -74.3521 C.3       4 UNK         0.0263 
     53 CB        -77.2406   23.9155  -72.8374 C.3       4 UNK        -0.1981 
     54 N         -78.2660   23.7575  -75.0684 N.am      4 UNK        -0.4224 
     55 C         -78.3332   23.4953  -76.3816 C.2       3 UNK         0.4895 
     56 O         -77.3465   23.3741  -77.1085 O.2       3 UNK        -0.5091 
     57 CA        -79.7400   23.4014  -76.9927 C.3       3 UNK         0.0250 
     58 CB        -80.3689   22.0274  -76.7129 C.3       3 UNK        -0.1996 
     59 N         -80.6264   24.4643  -76.5100 N.am      3 UNK        -0.4254 
     60 C         -80.4699   25.7618  -76.8123 C.2       2 UNK         0.5004 
     61 O         -79.5850   26.1870  -77.5549 O.2       2 UNK        -0.5226 
     62 CA        -81.4342   26.7660  -76.1535 C.3       2 UNK         0.0269 
     63 CB        -82.6698   26.9790  -77.0420 C.3       2 UNK        -0.1926 
     64 N         -81.8669   26.4116  -74.7954 N.am      2 UNK        -0.4687 
     65 C         -81.0493   26.1694  -73.7607 C.2       1 UNK         0.5165 
     66 O         -79.8215   26.1769  -73.8533 O.2       1 UNK        -0.5079 
     67 H67       -81.1818   21.6406  -71.1454 H         1 UNK         0.0900 
     68 H68       -79.6964   21.7991  -72.0843 H         1 UNK         0.0900 
     69 H69       -79.9119   22.7480  -70.6130 H         1 UNK         0.0900 
     70 H70       -80.7980   24.8107  -70.8334 H         1 UNK         0.2959 
     71 H71       -82.7539   25.6116  -72.6190 H         1 UNK         0.1079 
     72 H72       -82.7385   27.2011  -71.0505 H         1 UNK         0.0837 
     73 H73       -81.5969   28.0458  -72.0117 H         1 UNK         0.0837 
     74 H74       -78.3045   26.5373  -69.9191 H         1 UNK         0.0685 
     75 H75       -78.9215   26.3335  -71.5233 H         1 UNK         0.0685 
     76 H76       -79.5543   28.5510  -72.8349 H         1 UNK         0.1434 
     77 H77       -76.6032   31.6025  -72.2919 H         1 UNK         0.1329 
     78 H78       -76.9550   28.4243  -69.4331 H         1 UNK         0.1335 
     79 H79       -75.0887   31.5468  -70.4956 H         1 UNK         0.0680 
     80 H80       -75.8597   31.0190  -69.0207 H         1 UNK         0.0680 
     81 H81       -73.2798   27.9194  -71.3145 H         1 UNK         0.1032 
     82 H82       -74.6584   28.7610  -71.9369 H         1 UNK         0.1032 
     83 H83       -73.1719   30.8691  -72.1048 H         1 UNK         0.0461 
     84 H84       -70.5119   28.7671  -73.1503 H         1 UNK         0.3453 
     85 H85       -69.4205   29.2838  -71.8887 H         1 UNK         0.3453 
     86 H86       -73.2017   28.5904  -73.8488 H         1 UNK         0.2984 
     87 H87       -73.2830   29.8499  -76.5084 H         1 UNK         0.0554 
     88 H88       -71.2933   31.1604  -77.0908 H         1 UNK         0.0847 
     89 H89       -71.2089   29.6044  -77.8972 H         1 UNK         0.0847 
     90 H90       -70.2233   29.9150  -76.4683 H         1 UNK         0.0847 
     91 H91       -73.1556   27.6471  -76.3667 H         1 UNK         0.3141 
     92 H92       -70.6958   25.3278  -75.4952 H         1 UNK         0.0743 
     93 H93       -72.9240   25.9411  -73.4854 H         1 UNK         0.0784 
     94 H94       -72.1402   24.3768  -73.6945 H         1 UNK         0.0784 
     95 H95       -71.2150   25.7545  -73.1229 H         1 UNK         0.0784 
     96 H96       -73.6464   25.3204  -75.7776 H         1 UNK         0.3213 
     97 H97       -73.2933   23.5414  -78.9147 H         1 UNK         0.0855 
     98 H98       -74.3858   22.9553  -76.1135 H         1 UNK         0.0814 
     99 H99       -73.1610   22.0145  -76.9525 H         1 UNK         0.0814 
    100 H100      -74.7956   22.0893  -77.5914 H         1 UNK         0.0814 
    101 H101      -75.6087   24.5746  -77.5598 H         1 UNK         0.3105 
    102 H102      -75.9828   27.4422  -79.6476 H         1 UNK         0.0547 
    103 H103      -76.8838   25.5314  -80.9922 H         1 UNK         0.0837 
    104 H104      -77.5515   24.8100  -79.5334 H         1 UNK         0.0837 
    105 H105      -78.1611   26.3577  -80.1136 H         1 UNK         0.0837 
    106 H106      -77.6914   26.4481  -77.6409 H         1 UNK         0.3020 
    107 H107      -76.1395   28.0996  -74.8391 H         1 UNK         0.1245 
    108 H108      -78.8315   28.3849  -74.9527 H         1 UNK         0.0781 
    109 H109      -78.5533   28.5738  -76.6440 H         1 UNK         0.0781 
    110 H110      -79.6507   30.6074  -74.1752 H         1 UNK         0.0836 
    111 H111      -78.5620   31.9254  -73.8371 H         1 UNK         0.0836 
    112 H112      -78.2247   26.2391  -74.7884 H         1 UNK         0.3022 
    113 H113      -76.3002   23.2378  -74.6302 H         1 UNK         0.0747 
    114 H114      -77.4881   22.8957  -72.5439 H         1 UNK         0.0793 
    115 H115      -76.3439   24.2016  -72.2857 H         1 UNK         0.0793 
    116 H116      -78.0503   24.5626  -72.5091 H         1 UNK         0.0793 
    117 H117      -79.1280   23.9005  -74.5596 H         1 UNK         0.3047 
    118 H118      -79.6375   23.5133  -78.0745 H         1 UNK         0.0822 
    119 H119      -81.3376   21.9278  -77.2029 H         1 UNK         0.0807 
    120 H120      -80.5142   21.8556  -75.6457 H         1 UNK         0.0807 
    121 H121      -79.7326   21.2248  -77.0883 H         1 UNK         0.0807 
    122 H122      -81.3539   24.2001  -75.8591 H         1 UNK         0.2946 
    123 H123      -80.9037   27.7172  -76.0849 H         1 UNK         0.1144 
    124 H124      -83.3065   27.7745  -76.6544 H         1 UNK         0.0793 
    125 H125      -83.2722   26.0731  -77.1208 H         1 UNK         0.0793 
    126 H126      -82.3784   27.2656  -78.0538 H         1 UNK         0.0793 
    127 H127      -82.8650   26.3727  -74.6443 H         1 UNK         0.2896 
@<TRIPOS>BOND
     1    1    2 1    
     2    1   67 1    
     3    1   68 1    
     4    1   69 1    
     5    2    3 2    
     6    2    4 am   BACKBONE|DICT|INTERRES
     7    4    5 1    
     8    4   70 1    
     9    5    6 1    
    10    5   65 1    
    11    5   71 1    
    12    6    7 1    
    13    6   72 1    
    14    6   73 1    
    15    7    8 1    
    16    8    9 1    
    17    8   74 1    
    18    8   75 1    
    19    9   10 ar   
    20    9   14 ar   
    21   10   11 ar   
    22   10   76 1    
    23   11   12 ar   
    24   11   48 1    
    25   12   13 ar   
    26   12   77 1    
    27   13   14 ar   
    28   13   15 1    
    29   14   78 1    
    30   15   16 1    
    31   15   79 1    
    32   15   80 1    
    33   16   17 1    
    34   17   18 1    
    35   17   81 1    
    36   17   82 1    
    37   18   19 1    
    38   18   22 1    
    39   18   83 1    
    40   19   20 am   BACKBONE|DICT|INTERRES
    41   19   21 2    
    42   20   84 1    
    43   20   85 1    
    44   22   23 am   BACKBONE|DICT|INTERRES
    45   22   86 1    
    46   23   24 2    
    47   23   25 1    
    48   25   26 1    
    49   25   27 1    
    50   25   87 1    
    51   26   88 1    
    52   26   89 1    
    53   26   90 1    
    54   27   28 am   BACKBONE|DICT|INTERRES
    55   27   91 1    
    56   28   29 2    
    57   28   30 1    
    58   30   31 1    
    59   30   32 1    
    60   30   92 1    
    61   31   93 1    
    62   31   94 1    
    63   31   95 1    
    64   32   33 am   BACKBONE|DICT|INTERRES
    65   32   96 1    
    66   33   34 2    
    67   33   35 1    
    68   35   36 1    
    69   35   37 1    
    70   35   97 1    
    71   36   98 1    
    72   36   99 1    
    73   36  100 1    
    74   37   38 am   BACKBONE|DICT|INTERRES
    75   37  101 1    
    76   38   39 2    
    77   38   40 1    
    78   40   41 1    
    79   40   42 1    
    80   40  102 1    
    81   41  103 1    
    82   41  104 1    
    83   41  105 1    
    84   42   43 am   BACKBONE|DICT|INTERRES
    85   42  106 1    
    86   43   44 2    
    87   43   45 1    
    88   45   46 1    
    89   45   49 1    
    90   45  107 1    
    91   46   47 1    
    92   46  108 1    
    93   46  109 1    
    94   47   48 1    
    95   48  110 1    
    96   48  111 1    
    97   49   50 am   BACKBONE|DICT|INTERRES
    98   49  112 1    
    99   50   51 2    
   100   50   52 1    
   101   52   53 1    
   102   52   54 1    
   103   52  113 1    
   104   53  114 1    
   105   53  115 1    
   106   53  116 1    
   107   54   55 am   BACKBONE|DICT|INTERRES
   108   54  117 1    
   109   55   56 2    
   110   55   57 1    
   111   57   58 1    
   112   57   59 1    
   113   57  118 1    
   114   58  119 1    
   115   58  120 1    
   116   58  121 1    
   117   59   60 am   BACKBONE|DICT|INTERRES
   118   59  122 1    
   119   60   61 2    
   120   60   62 1    
   121   62   63 1    
   122   62   64 1    
   123   62  123 1    
   124   63  124 1    
   125   63  125 1    
   126   63  126 1    
   127   64   65 am   BACKBONE|DICT|INTERRES
   128   64  127 1    
   129   65   66 2    
@<TRIPOS>SUBSTRUCTURE
     1 UNK         1 GROUP             0       ****    0 ROOT    
