@<TRIPOS>MOLECULE
3R135
127   129    1
SMALL
USER_CHARGES


@<TRIPOS>ATOM
      1 CA        -80.0440   31.8471  -74.1748 C.3       0 UNK        -0.1998 
      2 C         -80.4304   30.3773  -74.1023 C.2       0 UNK         0.4909 
      3 O         -81.4882   30.0008  -74.6076 O.2       0 UNK        -0.5240 
      4 N         -79.5742   29.5549  -73.4799 N.am      1 UNK        -0.4739 
      5 CA        -79.7267   28.1027  -73.2893 C.3       1 UNK         0.0864 
      6 C6        -80.9296   27.6959  -72.3851 C.3       11 UNK        -0.0881 
      7 S7        -81.0952   28.6820  -70.8521 S.3       11 UNK        -0.2682 
      8 C8        -80.0166   27.7965  -69.6756 C.3       11 UNK         0.0289 
      9 C9        -78.5418   27.8384  -70.0625 C.ar      11 UNK        -0.0687 
     10 C10       -77.7780   26.6690  -70.0212 C.ar      11 UNK        -0.0823 
     11 C11       -76.4333   26.6788  -70.4077 C.ar      11 UNK        -0.0830 
     12 C12       -75.8546   27.8721  -70.8508 C.ar      11 UNK        -0.1021 
     13 C13       -76.6012   29.0539  -70.8743 C.ar      11 UNK        -0.0753 
     14 C14       -77.9351   29.0352  -70.4590 C.ar      11 UNK        -0.0933 
     15 C15       -75.9747   30.3545  -71.3467 C.3       11 UNK         0.0166 
     16 S16       -76.3789   30.6720  -73.0910 S.3       11 UNK        -0.2615 
     17 C17       -75.5795   32.2945  -73.3428 C.3       11 UNK        -0.0865 
     18 CA        -74.3287   32.2176  -74.2578 C.3       10 UNK         0.0862 
     19 C         -73.7803   33.6421  -74.5675 C.2       10 UNK         0.5551 
     20 N         -72.5587   33.9865  -74.1781 N.am      10 UNK        -0.7319 
     21 O         -74.4787   34.4484  -75.1769 O.2       10 UNK        -0.5018 
     22 N         -73.3291   31.2685  -73.7370 N.am      10 UNK        -0.4509 
     23 C         -72.3753   30.6813  -74.4694 C.2       10 UNK         0.4899 
     24 O         -72.2009   30.9042  -75.6689 O.2       10 UNK        -0.4839 
     25 CA        -71.4369   29.6875  -73.7520 C.3       9 UNK         0.0222 
     26 CB        -71.8230   29.3809  -72.2849 C.3       9 UNK        -0.1966 
     27 N         -71.2796   28.4490  -74.5249 N.am      9 UNK        -0.4218 
     28 C         -72.2472   27.5796  -74.8511 C.2       9 UNK         0.5020 
     29 O         -73.4149   27.6581  -74.4595 O.2       9 UNK        -0.5274 
     30 CA        -71.8215   26.3987  -75.7397 C.3       8 UNK         0.0270 
     31 CB        -71.3094   25.2342  -74.8762 C.3       8 UNK        -0.1976 
     32 N         -72.9475   25.9437  -76.5581 N.am      8 UNK        -0.4313 
     33 C         -73.3789   26.5831  -77.6559 C.2       8 UNK         0.5041 
     34 O         -72.7685   27.5238  -78.1684 O.2       8 UNK        -0.5577 
     35 CA        -74.7231   26.1401  -78.2720 C.3       7 UNK         0.0284 
     36 CB        -74.7800   26.3352  -79.8023 C.3       7 UNK        -0.1958 
     37 N         -75.1483   24.7892  -77.8924 N.am      7 UNK        -0.4454 
     38 C         -74.5550   23.6257  -78.1943 C.2       7 UNK         0.5089 
     39 O         -73.5614   23.5286  -78.9162 O.2       7 UNK        -0.5125 
     40 CA        -75.1728   22.3585  -77.5616 C.3       6 UNK         0.0408 
     41 CB        -74.1654   21.1925  -77.4848 C.3       6 UNK        -0.1791 
     42 N         -75.7897   22.5755  -76.2434 N.am      6 UNK        -0.4762 
     43 C         -75.2118   23.1122  -75.1537 C.2       6 UNK         0.5007 
     44 O         -74.0645   23.5572  -75.1541 O.2       6 UNK        -0.5032 
     45 CA        -76.0522   23.1658  -73.8617 C.3       5 UNK         0.0783 
     46 C46       -75.6114   24.2920  -72.8890 C.3       11 UNK        -0.0857 
     47 S47       -76.3083   24.0199  -71.2285 S.3       11 UNK        -0.2512 
     48 C48       -75.5967   25.4111  -70.2963 C.3       11 UNK         0.0225 
     49 N         -77.4733   23.2633  -74.2023 N.am      5 UNK        -0.4615 
     50 C         -78.4282   22.4152  -73.8000 C.2       4 UNK         0.5053 
     51 O         -78.2308   21.4632  -73.0447 O.2       4 UNK        -0.5105 
     52 CA        -79.8465   22.6457  -74.3560 C.3       4 UNK         0.0263 
     53 CB        -80.6860   23.4465  -73.3480 C.3       4 UNK        -0.1981 
     54 N         -79.8600   23.3229  -75.6583 N.am      4 UNK        -0.4224 
     55 C         -79.3321   22.8120  -76.7828 C.2       3 UNK         0.4895 
     56 O         -78.8269   21.6911  -76.8488 O.2       3 UNK        -0.5091 
     57 CA        -79.3007   23.7050  -78.0363 C.3       3 UNK         0.0250 
     58 CB        -80.4597   23.3442  -78.9788 C.3       3 UNK        -0.1996 
     59 N         -79.3263   25.1469  -77.7729 N.am      3 UNK        -0.4254 
     60 C         -78.4453   25.8298  -77.0288 C.2       2 UNK         0.5004 
     61 O         -77.5100   25.3020  -76.4224 O.2       2 UNK        -0.5226 
     62 CA        -78.6395   27.3542  -76.9234 C.3       2 UNK         0.0269 
     63 CB        -79.7915   27.9111  -77.7909 C.3       2 UNK        -0.1926 
     64 N         -78.8049   27.7961  -75.5354 N.am      2 UNK        -0.4687 
     65 C         -79.7032   27.3525  -74.6401 C.2       1 UNK         0.5165 
     66 O         -80.4918   26.4290  -74.8571 O.2       1 UNK        -0.5079 
     67 H67       -79.8814   32.1415  -75.2113 H         1 UNK         0.0900 
     68 H68       -80.8424   32.4651  -73.7652 H         1 UNK         0.0900 
     69 H69       -79.1336   32.0586  -73.6143 H         1 UNK         0.0900 
     70 H70       -78.7162   29.9405  -73.1061 H         1 UNK         0.2959 
     71 H71       -78.8183   27.7728  -72.7858 H         1 UNK         0.1079 
     72 H72       -80.8633   26.6399  -72.1184 H         1 UNK         0.0837 
     73 H73       -81.8646   27.8057  -72.9374 H         1 UNK         0.0837 
     74 H74       -80.3678   26.7673  -69.5865 H         1 UNK         0.0685 
     75 H75       -80.1296   28.2488  -68.6897 H         1 UNK         0.0685 
     76 H76       -78.2284   25.7437  -69.6879 H         1 UNK         0.1434 
     77 H77       -74.8195   27.8858  -71.1635 H         1 UNK         0.1329 
     78 H78       -78.5131   29.9491  -70.4784 H         1 UNK         0.1335 
     79 H79       -76.3353   31.1807  -70.7318 H         1 UNK         0.0680 
     80 H80       -74.8917   30.3223  -71.2210 H         1 UNK         0.0680 
     81 H81       -75.3216   32.7386  -72.3796 H         1 UNK         0.1032 
     82 H82       -76.3281   32.9564  -73.7827 H         1 UNK         0.1032 
     83 H83       -74.6655   31.8234  -75.2189 H         1 UNK         0.0461 
     84 H84       -72.2143   34.9103  -74.3875 H         1 UNK         0.3453 
     85 H85       -71.9777   33.3302  -73.6822 H         1 UNK         0.3453 
     86 H86       -73.4067   31.0302  -72.7610 H         1 UNK         0.2984 
     87 H87       -70.4543   30.1611  -73.7375 H         1 UNK         0.0554 
     88 H88       -71.1274   28.6698  -71.8392 H         1 UNK         0.0847 
     89 H89       -72.8230   28.9542  -72.2024 H         1 UNK         0.0847 
     90 H90       -71.7906   30.2798  -71.6681 H         1 UNK         0.0847 
     91 H91       -70.3595   28.2997  -74.9157 H         1 UNK         0.3141 
     92 H92       -71.0147   26.7200  -76.4022 H         1 UNK         0.0743 
     93 H93       -70.4013   25.5147  -74.3413 H         1 UNK         0.0784 
     94 H94       -71.0727   24.3607  -75.4842 H         1 UNK         0.0784 
     95 H95       -72.0443   24.9330  -74.1286 H         1 UNK         0.0784 
     96 H96       -73.5007   25.1832  -76.1739 H         1 UNK         0.3213 
     97 H97       -75.4651   26.8095  -77.8359 H         1 UNK         0.0855 
     98 H98       -74.0088   25.7588  -80.3136 H         1 UNK         0.0814 
     99 H99       -74.6303   27.3820  -80.0694 H         1 UNK         0.0814 
    100 H100      -75.7475   26.0357  -80.2052 H         1 UNK         0.0814 
    101 H101      -75.9557   24.7597  -77.2717 H         1 UNK         0.3105 
    102 H102      -75.9817   22.0541  -78.2272 H         1 UNK         0.0547 
    103 H103      -74.6241   20.2982  -77.0634 H         1 UNK         0.0837 
    104 H104      -73.3008   21.4479  -76.8711 H         1 UNK         0.0837 
    105 H105      -73.7944   20.9262  -78.4753 H         1 UNK         0.0837 
    106 H106      -76.7457   22.2507  -76.1563 H         1 UNK         0.3020 
    107 H107      -75.8532   22.2084  -73.3747 H         1 UNK         0.1245 
    108 H108      -75.9144   25.2731  -73.2604 H         1 UNK         0.0781 
    109 H109      -74.5256   24.3214  -72.7810 H         1 UNK         0.0781 
    110 H110      -74.5691   25.5830  -70.6208 H         1 UNK         0.0836 
    111 H111      -75.5392   25.1289  -69.2442 H         1 UNK         0.0836 
    112 H112      -77.7118   24.0062  -74.8523 H         1 UNK         0.3022 
    113 H113      -80.3121   21.6669  -74.4888 H         1 UNK         0.0747 
    114 H114      -81.6944   23.6287  -73.7200 H         1 UNK         0.0793 
    115 H115      -80.7797   22.9060  -72.4052 H         1 UNK         0.0793 
    116 H116      -80.2298   24.4106  -73.1224 H         1 UNK         0.0793 
    117 H117      -80.2224   24.2691  -75.6747 H         1 UNK         0.3047 
    118 H118      -78.3626   23.4917  -78.5532 H         1 UNK         0.0822 
    119 H119      -80.3890   23.8856  -79.9225 H         1 UNK         0.0807 
    120 H120      -81.4287   23.5706  -78.5319 H         1 UNK         0.0807 
    121 H121      -80.4523   22.2798  -79.2186 H         1 UNK         0.0807 
    122 H122      -80.0757   25.6665  -78.2067 H         1 UNK         0.2946 
    123 H123      -77.7107   27.7986  -77.2837 H         1 UNK         0.1144 
    124 H124      -79.8387   28.9981  -77.7201 H         1 UNK         0.0793 
    125 H125      -80.7643   27.5254  -77.4826 H         1 UNK         0.0793 
    126 H126      -79.6503   27.6709  -78.8457 H         1 UNK         0.0793 
    127 H127      -78.1902   28.5422  -75.2411 H         1 UNK         0.2896 
@<TRIPOS>BOND
     1    1    2 1    
     2    1   67 1    
     3    1   68 1    
     4    1   69 1    
     5    2    3 2    
     6    2    4 am   BACKBONE|DICT|INTERRES
     7    4    5 1    
     8    4   70 1    
     9    5    6 1    
    10    5   65 1    
    11    5   71 1    
    12    6    7 1    
    13    6   72 1    
    14    6   73 1    
    15    7    8 1    
    16    8    9 1    
    17    8   74 1    
    18    8   75 1    
    19    9   10 ar   
    20    9   14 ar   
    21   10   11 ar   
    22   10   76 1    
    23   11   12 ar   
    24   11   48 1    
    25   12   13 ar   
    26   12   77 1    
    27   13   14 ar   
    28   13   15 1    
    29   14   78 1    
    30   15   16 1    
    31   15   79 1    
    32   15   80 1    
    33   16   17 1    
    34   17   18 1    
    35   17   81 1    
    36   17   82 1    
    37   18   19 1    
    38   18   22 1    
    39   18   83 1    
    40   19   20 am   BACKBONE|DICT|INTERRES
    41   19   21 2    
    42   20   84 1    
    43   20   85 1    
    44   22   23 am   BACKBONE|DICT|INTERRES
    45   22   86 1    
    46   23   24 2    
    47   23   25 1    
    48   25   26 1    
    49   25   27 1    
    50   25   87 1    
    51   26   88 1    
    52   26   89 1    
    53   26   90 1    
    54   27   28 am   BACKBONE|DICT|INTERRES
    55   27   91 1    
    56   28   29 2    
    57   28   30 1    
    58   30   31 1    
    59   30   32 1    
    60   30   92 1    
    61   31   93 1    
    62   31   94 1    
    63   31   95 1    
    64   32   33 am   BACKBONE|DICT|INTERRES
    65   32   96 1    
    66   33   34 2    
    67   33   35 1    
    68   35   36 1    
    69   35   37 1    
    70   35   97 1    
    71   36   98 1    
    72   36   99 1    
    73   36  100 1    
    74   37   38 am   BACKBONE|DICT|INTERRES
    75   37  101 1    
    76   38   39 2    
    77   38   40 1    
    78   40   41 1    
    79   40   42 1    
    80   40  102 1    
    81   41  103 1    
    82   41  104 1    
    83   41  105 1    
    84   42   43 am   BACKBONE|DICT|INTERRES
    85   42  106 1    
    86   43   44 2    
    87   43   45 1    
    88   45   46 1    
    89   45   49 1    
    90   45  107 1    
    91   46   47 1    
    92   46  108 1    
    93   46  109 1    
    94   47   48 1    
    95   48  110 1    
    96   48  111 1    
    97   49   50 am   BACKBONE|DICT|INTERRES
    98   49  112 1    
    99   50   51 2    
   100   50   52 1    
   101   52   53 1    
   102   52   54 1    
   103   52  113 1    
   104   53  114 1    
   105   53  115 1    
   106   53  116 1    
   107   54   55 am   BACKBONE|DICT|INTERRES
   108   54  117 1    
   109   55   56 2    
   110   55   57 1    
   111   57   58 1    
   112   57   59 1    
   113   57  118 1    
   114   58  119 1    
   115   58  120 1    
   116   58  121 1    
   117   59   60 am   BACKBONE|DICT|INTERRES
   118   59  122 1    
   119   60   61 2    
   120   60   62 1    
   121   62   63 1    
   122   62   64 1    
   123   62  123 1    
   124   63  124 1    
   125   63  125 1    
   126   63  126 1    
   127   64   65 am   BACKBONE|DICT|INTERRES
   128   64  127 1    
   129   65   66 2    
@<TRIPOS>SUBSTRUCTURE
     1 UNK         1 GROUP             0       ****    0 ROOT    
