@<TRIPOS>MOLECULE
3R135
127   129    1
SMALL
USER_CHARGES


@<TRIPOS>ATOM
      1 CA        -78.5139   29.0123  -74.7739 C.3       0 UNK        -0.1998 
      2 C         -79.7963   29.6289  -75.3256 C.2       0 UNK         0.4909 
      3 O         -79.7317   30.4110  -76.2720 O.2       0 UNK        -0.5240 
      4 N         -80.9762   29.3233  -74.7707 N.am      1 UNK        -0.4739 
      5 CA        -81.2108   28.3565  -73.6927 C.3       1 UNK         0.0864 
      6 C6        -82.4070   28.7599  -72.7967 C.3       11 UNK        -0.0881 
      7 S7        -82.1651   30.3855  -72.0022 S.3       11 UNK        -0.2682 
      8 C8        -81.5019   29.9187  -70.3715 C.3       11 UNK         0.0289 
      9 C9        -80.0771   29.3893  -70.4626 C.ar      11 UNK        -0.0687 
     10 C10       -79.8213   28.0197  -70.3502 C.ar      11 UNK        -0.0823 
     11 C11       -78.5137   27.5303  -70.4226 C.ar      11 UNK        -0.0830 
     12 C12       -77.4570   28.4387  -70.5597 C.ar      11 UNK        -0.1021 
     13 C13       -77.6937   29.8106  -70.7117 C.ar      11 UNK        -0.0753 
     14 C14       -79.0120   30.2736  -70.6570 C.ar      11 UNK        -0.0933 
     15 C15       -76.5740   30.8264  -70.9615 C.3       11 UNK         0.0166 
     16 S16       -74.8749   30.2536  -70.6028 S.3       11 UNK        -0.2615 
     17 C17       -74.4301   29.2954  -72.1000 C.3       11 UNK        -0.0865 
     18 CA        -73.1853   29.8642  -72.8401 C.3       10 UNK         0.0862 
     19 C         -71.8421   29.5063  -72.1229 C.2       10 UNK         0.5551 
     20 N         -70.8830   28.8494  -72.7649 N.am      10 UNK        -0.7319 
     21 O         -71.6497   29.8467  -70.9589 O.2       10 UNK        -0.5018 
     22 N         -73.2204   29.5190  -74.2718 N.am      10 UNK        -0.4509 
     23 C         -72.5586   30.1762  -75.2338 C.2       10 UNK         0.4899 
     24 O         -71.9374   31.2231  -75.0426 O.2       10 UNK        -0.4839 
     25 CA        -72.5779   29.5335  -76.6366 C.3       9 UNK         0.0222 
     26 CB        -71.5709   30.1793  -77.6109 C.3       9 UNK        -0.1966 
     27 N         -72.3955   28.0767  -76.5989 N.am      9 UNK        -0.4218 
     28 C         -71.3758   27.3907  -76.0587 C.2       9 UNK         0.5020 
     29 O         -70.3934   27.9252  -75.5433 O.2       9 UNK        -0.5274 
     30 CA        -71.4731   25.8522  -76.0317 C.3       8 UNK         0.0270 
     31 CB        -71.6560   25.3620  -74.5851 C.3       8 UNK        -0.1976 
     32 N         -72.5563   25.3096  -76.8562 N.am      8 UNK        -0.4313 
     33 C         -72.5382   25.2377  -78.1942 C.2       8 UNK         0.5041 
     34 O         -71.5670   25.5495  -78.8841 O.2       8 UNK        -0.5577 
     35 CA        -73.8394   24.7842  -78.8800 C.3       7 UNK         0.0284 
     36 CB        -73.9332   23.2505  -78.9134 C.3       7 UNK        -0.1958 
     37 N         -75.0403   25.3433  -78.2489 N.am      7 UNK        -0.4454 
     38 C         -75.3283   26.6526  -78.1896 C.2       7 UNK         0.5089 
     39 O         -74.6377   27.5298  -78.7066 O.2       7 UNK        -0.5125 
     40 CA        -76.5537   27.0632  -77.3599 C.3       6 UNK         0.0408 
     41 CB        -77.8557   26.8584  -78.1487 C.3       6 UNK        -0.1791 
     42 N         -76.6254   26.3425  -76.0899 N.am      6 UNK        -0.4762 
     43 C         -75.7562   26.4751  -75.0789 C.2       6 UNK         0.5007 
     44 O         -74.8240   27.2782  -75.0759 O.2       6 UNK        -0.5032 
     45 CA        -75.9446   25.5427  -73.8691 C.3       5 UNK         0.0783 
     46 C46       -76.9567   26.1442  -72.8692 C.3       11 UNK        -0.0857 
     47 S47       -76.7925   25.3999  -71.2132 S.3       11 UNK        -0.2512 
     48 C48       -78.2790   26.0197  -70.3407 C.3       11 UNK         0.0225 
     49 N         -76.3147   24.1869  -74.2805 N.am      5 UNK        -0.4615 
     50 C         -75.5213   23.3552  -74.9671 C.2       4 UNK         0.5053 
     51 O         -74.3692   23.6285  -75.3016 O.2       4 UNK        -0.5105 
     52 CA        -76.1367   22.0104  -75.3872 C.3       4 UNK         0.0263 
     53 CB        -76.0810   21.0035  -74.2275 C.3       4 UNK        -0.1981 
     54 N         -77.5189   22.1491  -75.8554 N.am      4 UNK        -0.4224 
     55 C         -77.8736   22.8008  -76.9725 C.2       3 UNK         0.4895 
     56 O         -77.0698   23.3140  -77.7508 O.2       3 UNK        -0.5091 
     57 CA        -79.3822   22.9501  -77.2397 C.3       3 UNK         0.0250 
     58 CB        -79.9418   21.6839  -77.9075 C.3       3 UNK        -0.1996 
     59 N         -80.1738   23.2719  -76.0440 N.am      3 UNK        -0.4254 
     60 C         -79.9765   24.3485  -75.2705 C.2       2 UNK         0.5004 
     61 O         -79.0594   25.1518  -75.4450 O.2       2 UNK        -0.5226 
     62 CA        -80.9225   24.5339  -74.0711 C.3       2 UNK         0.0269 
     63 CB        -80.4867   23.6248  -72.9094 C.3       2 UNK        -0.1926 
     64 N         -80.9339   25.9238  -73.6006 N.am      2 UNK        -0.4687 
     65 C         -81.4323   26.9565  -74.2942 C.2       1 UNK         0.5165 
     66 O         -82.0596   26.8344  -75.3498 O.2       1 UNK        -0.5079 
     67 H67       -78.5667   27.9253  -74.8061 H         1 UNK         0.0900 
     68 H68       -78.3390   29.3314  -73.7465 H         1 UNK         0.0900 
     69 H69       -77.6533   29.3215  -75.3662 H         1 UNK         0.0900 
     70 H70       -81.8130   29.7259  -75.1670 H         1 UNK         0.2959 
     71 H71       -80.3280   28.3111  -73.0562 H         1 UNK         0.1079 
     72 H72       -83.3258   28.8073  -73.3849 H         1 UNK         0.0837 
     73 H73       -82.5851   28.0099  -72.0235 H         1 UNK         0.0837 
     74 H74       -81.5154   30.7974  -69.7250 H         1 UNK         0.0685 
     75 H75       -82.1623   29.1884  -69.9014 H         1 UNK         0.0685 
     76 H76       -80.6453   27.3330  -70.2101 H         1 UNK         0.1434 
     77 H77       -76.4467   28.0612  -70.5789 H         1 UNK         0.1329 
     78 H78       -79.2142   31.3307  -70.7661 H         1 UNK         0.1335 
     79 H79       -76.6273   31.1718  -71.9948 H         1 UNK         0.0680 
     80 H80       -76.7567   31.7029  -70.3380 H         1 UNK         0.0680 
     81 H81       -75.2915   29.2956  -72.7697 H         1 UNK         0.1032 
     82 H82       -74.2742   28.2503  -71.8261 H         1 UNK         0.1032 
     83 H83       -73.2570   30.9526  -72.7933 H         1 UNK         0.0461 
     84 H84       -70.0271   28.6430  -72.2757 H         1 UNK         0.3453 
     85 H85       -70.9664   28.6062  -73.7450 H         1 UNK         0.3453 
     86 H86       -73.7157   28.6664  -74.5248 H         1 UNK         0.2984 
     87 H87       -73.5794   29.7027  -77.0347 H         1 UNK         0.0554 
     88 H88       -71.6292   29.7230  -78.5991 H         1 UNK         0.0847 
     89 H89       -70.5444   30.0811  -77.2559 H         1 UNK         0.0847 
     90 H90       -71.7723   31.2441  -77.7343 H         1 UNK         0.0847 
     91 H91       -73.1697   27.5421  -76.9723 H         1 UNK         0.3141 
     92 H92       -70.5259   25.4604  -76.4079 H         1 UNK         0.0743 
     93 H93       -72.5813   25.7376  -74.1476 H         1 UNK         0.0784 
     94 H94       -71.6790   24.2732  -74.5343 H         1 UNK         0.0784 
     95 H95       -70.8357   25.6977  -73.9491 H         1 UNK         0.0784 
     96 H96       -73.3655   24.9433  -76.3608 H         1 UNK         0.3213 
     97 H97       -73.8111   25.1452  -79.9103 H         1 UNK         0.0855 
     98 H98       -73.9913   22.8262  -77.9109 H         1 UNK         0.0814 
     99 H99       -73.0597   22.8166  -79.4019 H         1 UNK         0.0814 
    100 H100      -74.8121   22.9194  -79.4670 H         1 UNK         0.0814 
    101 H101      -75.6979   24.6803  -77.8453 H         1 UNK         0.3105 
    102 H102      -76.4596   28.1275  -77.1354 H         1 UNK         0.0547 
    103 H103      -77.8386   27.4222  -79.0822 H         1 UNK         0.0837 
    104 H104      -78.0154   25.8105  -78.4025 H         1 UNK         0.0837 
    105 H105      -78.7210   27.1985  -77.5791 H         1 UNK         0.0837 
    106 H106      -77.4182   25.7142  -75.9639 H         1 UNK         0.3020 
    107 H107      -74.9705   25.4826  -73.3780 H         1 UNK         0.1245 
    108 H108      -77.9813   26.0232  -73.2205 H         1 UNK         0.0781 
    109 H109      -76.7932   27.2173  -72.7762 H         1 UNK         0.0781 
    110 H110      -78.2022   25.7393  -69.2895 H         1 UNK         0.0836 
    111 H111      -79.1457   25.4878  -70.7345 H         1 UNK         0.0836 
    112 H112      -77.2618   23.9031  -74.0835 H         1 UNK         0.3022 
    113 H113      -75.5390   21.6154  -76.2115 H         1 UNK         0.0747 
    114 H114      -76.4421   20.0224  -74.5366 H         1 UNK         0.0793 
    115 H115      -75.0568   20.8733  -73.8748 H         1 UNK         0.0793 
    116 H116      -76.6796   21.3295  -73.3758 H         1 UNK         0.0793 
    117 H117      -78.2455   21.7551  -75.2760 H         1 UNK         0.3047 
    118 H118      -79.5031   23.7809  -77.9381 H         1 UNK         0.0822 
    119 H119      -80.9808   21.8197  -78.2083 H         1 UNK         0.0807 
    120 H120      -79.8940   20.8194  -77.2442 H         1 UNK         0.0807 
    121 H121      -79.3770   21.4357  -78.8075 H         1 UNK         0.0807 
    122 H122      -80.9381   22.6478  -75.8274 H         1 UNK         0.2946 
    123 H123      -81.9351   24.2659  -74.3814 H         1 UNK         0.1144 
    124 H124      -79.4641   23.8328  -72.5923 H         1 UNK         0.0793 
    125 H125      -80.5297   22.5730  -73.1949 H         1 UNK         0.0793 
    126 H126      -81.1380   23.7466  -72.0436 H         1 UNK         0.0793 
    127 H127      -80.4354   26.1056  -72.7435 H         1 UNK         0.2896 
@<TRIPOS>BOND
     1    1    2 1    
     2    1   67 1    
     3    1   68 1    
     4    1   69 1    
     5    2    3 2    
     6    2    4 am   BACKBONE|DICT|INTERRES
     7    4    5 1    
     8    4   70 1    
     9    5    6 1    
    10    5   65 1    
    11    5   71 1    
    12    6    7 1    
    13    6   72 1    
    14    6   73 1    
    15    7    8 1    
    16    8    9 1    
    17    8   74 1    
    18    8   75 1    
    19    9   10 ar   
    20    9   14 ar   
    21   10   11 ar   
    22   10   76 1    
    23   11   12 ar   
    24   11   48 1    
    25   12   13 ar   
    26   12   77 1    
    27   13   14 ar   
    28   13   15 1    
    29   14   78 1    
    30   15   16 1    
    31   15   79 1    
    32   15   80 1    
    33   16   17 1    
    34   17   18 1    
    35   17   81 1    
    36   17   82 1    
    37   18   19 1    
    38   18   22 1    
    39   18   83 1    
    40   19   20 am   BACKBONE|DICT|INTERRES
    41   19   21 2    
    42   20   84 1    
    43   20   85 1    
    44   22   23 am   BACKBONE|DICT|INTERRES
    45   22   86 1    
    46   23   24 2    
    47   23   25 1    
    48   25   26 1    
    49   25   27 1    
    50   25   87 1    
    51   26   88 1    
    52   26   89 1    
    53   26   90 1    
    54   27   28 am   BACKBONE|DICT|INTERRES
    55   27   91 1    
    56   28   29 2    
    57   28   30 1    
    58   30   31 1    
    59   30   32 1    
    60   30   92 1    
    61   31   93 1    
    62   31   94 1    
    63   31   95 1    
    64   32   33 am   BACKBONE|DICT|INTERRES
    65   32   96 1    
    66   33   34 2    
    67   33   35 1    
    68   35   36 1    
    69   35   37 1    
    70   35   97 1    
    71   36   98 1    
    72   36   99 1    
    73   36  100 1    
    74   37   38 am   BACKBONE|DICT|INTERRES
    75   37  101 1    
    76   38   39 2    
    77   38   40 1    
    78   40   41 1    
    79   40   42 1    
    80   40  102 1    
    81   41  103 1    
    82   41  104 1    
    83   41  105 1    
    84   42   43 am   BACKBONE|DICT|INTERRES
    85   42  106 1    
    86   43   44 2    
    87   43   45 1    
    88   45   46 1    
    89   45   49 1    
    90   45  107 1    
    91   46   47 1    
    92   46  108 1    
    93   46  109 1    
    94   47   48 1    
    95   48  110 1    
    96   48  111 1    
    97   49   50 am   BACKBONE|DICT|INTERRES
    98   49  112 1    
    99   50   51 2    
   100   50   52 1    
   101   52   53 1    
   102   52   54 1    
   103   52  113 1    
   104   53  114 1    
   105   53  115 1    
   106   53  116 1    
   107   54   55 am   BACKBONE|DICT|INTERRES
   108   54  117 1    
   109   55   56 2    
   110   55   57 1    
   111   57   58 1    
   112   57   59 1    
   113   57  118 1    
   114   58  119 1    
   115   58  120 1    
   116   58  121 1    
   117   59   60 am   BACKBONE|DICT|INTERRES
   118   59  122 1    
   119   60   61 2    
   120   60   62 1    
   121   62   63 1    
   122   62   64 1    
   123   62  123 1    
   124   63  124 1    
   125   63  125 1    
   126   63  126 1    
   127   64   65 am   BACKBONE|DICT|INTERRES
   128   64  127 1    
   129   65   66 2    
@<TRIPOS>SUBSTRUCTURE
     1 UNK         1 GROUP             0       ****    0 ROOT    
