@<TRIPOS>MOLECULE
3R135
127   129    1
SMALL
USER_CHARGES


@<TRIPOS>ATOM
      1 CA        -80.2709   24.1380  -70.3254 C.3       0 UNK        -0.1998 
      2 C         -81.4784   24.9321  -70.7990 C.2       0 UNK         0.4909 
      3 O         -82.6113   24.4756  -70.6423 O.2       0 UNK        -0.5240 
      4 N         -81.2446   26.1198  -71.3728 N.am      1 UNK        -0.4739 
      5 CA        -82.2914   27.0062  -71.9019 C.3       1 UNK         0.0864 
      6 C6        -81.8377   28.4879  -71.9582 C.3       11 UNK        -0.0881 
      7 S7        -81.5310   29.1533  -70.2822 S.3       11 UNK        -0.2682 
      8 C8        -80.2250   30.4035  -70.5695 C.3       11 UNK         0.0289 
      9 C9        -78.8689   29.8681  -71.0367 C.ar      11 UNK        -0.0687 
     10 C10       -78.5178   28.5162  -70.9374 C.ar      11 UNK        -0.0823 
     11 C11       -77.3053   28.0531  -71.4516 C.ar      11 UNK        -0.0830 
     12 C12       -76.3992   28.9612  -72.0034 C.ar      11 UNK        -0.1021 
     13 C13       -76.7147   30.3193  -72.0772 C.ar      11 UNK        -0.0753 
     14 C14       -77.9509   30.7645  -71.5963 C.ar      11 UNK        -0.0933 
     15 C15       -75.7375   31.2907  -72.7215 C.3       11 UNK         0.0166 
     16 S16       -74.2010   31.4400  -71.7579 S.3       11 UNK        -0.2615 
     17 C17       -73.3080   32.6959  -72.7391 C.3       11 UNK        -0.0865 
     18 CA        -72.0746   32.1544  -73.5116 C.3       10 UNK         0.0862 
     19 C         -70.8640   31.8293  -72.5853 C.2       10 UNK         0.5551 
     20 N         -70.1864   30.6970  -72.7330 N.am      10 UNK        -0.7319 
     21 O         -70.5148   32.6344  -71.7251 O.2       10 UNK        -0.5018 
     22 N         -72.4411   31.0756  -74.4454 N.am      10 UNK        -0.4509 
     23 C         -71.9021   30.9030  -75.6583 C.2       10 UNK         0.4899 
     24 O         -71.0845   31.6787  -76.1572 O.2       10 UNK        -0.4839 
     25 CA        -72.3477   29.6467  -76.4378 C.3       9 UNK         0.0222 
     26 CB        -71.5045   29.4144  -77.7088 C.3       9 UNK        -0.1966 
     27 N         -72.3875   28.4154  -75.6347 N.am      9 UNK        -0.4218 
     28 C         -71.4064   27.9071  -74.8701 C.2       9 UNK         0.5020 
     29 O         -70.3329   28.4694  -74.6534 O.2       9 UNK        -0.5274 
     30 CA        -71.6651   26.5285  -74.2475 C.3       8 UNK         0.0270 
     31 CB        -72.6704   26.6261  -73.0853 C.3       8 UNK        -0.1976 
     32 N         -72.1503   25.5855  -75.2576 N.am      8 UNK        -0.4313 
     33 C         -71.3646   24.8080  -76.0179 C.2       8 UNK         0.5041 
     34 O         -70.1393   24.7568  -75.9028 O.2       8 UNK        -0.5577 
     35 CA        -72.0472   23.9235  -77.0813 C.3       7 UNK         0.0284 
     36 CB        -72.2483   22.4981  -76.5423 C.3       7 UNK        -0.1958 
     37 N         -73.3372   24.4527  -77.5284 N.am      7 UNK        -0.4454 
     38 C         -73.4821   25.5162  -78.3345 C.2       7 UNK         0.5089 
     39 O         -72.5420   26.0732  -78.8998 O.2       7 UNK        -0.5125 
     40 CA        -74.9073   26.0812  -78.5148 C.3       6 UNK         0.0408 
     41 CB        -75.4962   25.6281  -79.8589 C.3       6 UNK        -0.1791 
     42 N         -75.8250   25.7165  -77.4274 N.am      6 UNK        -0.4762 
     43 C         -75.6453   26.0560  -76.1401 C.2       6 UNK         0.5007 
     44 O         -74.7526   26.8229  -75.7756 O.2       6 UNK        -0.5032 
     45 CA        -76.5197   25.3825  -75.0613 C.3       5 UNK         0.0783 
     46 C46       -77.3379   26.4268  -74.2743 C.3       11 UNK        -0.0857 
     47 S47       -78.0151   25.7193  -72.7334 S.3       11 UNK        -0.2512 
     48 C48       -77.0085   26.5623  -71.4674 C.3       11 UNK         0.0225 
     49 N         -77.3616   24.3007  -75.5792 N.am      5 UNK        -0.4615 
     50 C         -76.9100   23.1164  -76.0159 C.2       4 UNK         0.5053 
     51 O         -75.7185   22.8044  -76.0092 O.2       4 UNK        -0.5105 
     52 CA        -77.9449   22.1387  -76.6075 C.3       4 UNK         0.0263 
     53 CB        -78.3914   21.1276  -75.5399 C.3       4 UNK        -0.1981 
     54 N         -79.1288   22.7983  -77.1710 N.am      4 UNK        -0.4224 
     55 C         -79.1118   23.6994  -78.1647 C.2       3 UNK         0.4895 
     56 O         -78.0931   24.0077  -78.7829 O.2       3 UNK        -0.5091 
     57 CA        -80.4325   24.4207  -78.4978 C.3       3 UNK         0.0250 
     58 CB        -81.0949   23.7748  -79.7255 C.3       3 UNK        -0.1996 
     59 N         -81.4143   24.4985  -77.4048 N.am      3 UNK        -0.4254 
     60 C         -81.1982   25.0000  -76.1795 C.2       2 UNK         0.5004 
     61 O         -80.0964   25.3823  -75.7804 O.2       2 UNK        -0.5226 
     62 CA        -82.4092   25.0503  -75.2388 C.3       2 UNK         0.0269 
     63 CB        -82.9276   23.6360  -74.9143 C.3       2 UNK        -0.1926 
     64 N         -82.0386   25.7131  -73.9892 N.am      2 UNK        -0.4687 
     65 C         -82.8292   26.5158  -73.2648 C.2       1 UNK         0.5165 
     66 O         -83.9625   26.8472  -73.6171 O.2       1 UNK        -0.5079 
     67 H67       -80.5017   23.6127  -69.3990 H         1 UNK         0.0900 
     68 H68       -79.9882   23.4003  -71.0760 H         1 UNK         0.0900 
     69 H69       -79.4143   24.7842  -70.1372 H         1 UNK         0.0900 
     70 H70       -80.2927   26.4273  -71.5108 H         1 UNK         0.2959 
     71 H71       -83.1432   26.9572  -71.2190 H         1 UNK         0.1079 
     72 H72       -80.9442   28.5928  -72.5763 H         1 UNK         0.0837 
     73 H73       -82.6055   29.1101  -72.4224 H         1 UNK         0.0837 
     74 H74       -80.0721   30.9542  -69.6405 H         1 UNK         0.0685 
     75 H75       -80.6011   31.1245  -71.2971 H         1 UNK         0.0685 
     76 H76       -79.1983   27.8058  -70.4942 H         1 UNK         0.1434 
     77 H77       -75.4558   28.6116  -72.4001 H         1 UNK         0.1329 
     78 H78       -78.2074   31.8127  -71.6710 H         1 UNK         0.1335 
     79 H79       -75.5024   30.9485  -73.7305 H         1 UNK         0.0680 
     80 H80       -76.1921   32.2773  -72.8247 H         1 UNK         0.0680 
     81 H81       -73.0144   33.5065  -72.0695 H         1 UNK         0.1032 
     82 H82       -73.9963   33.1572  -73.4489 H         1 UNK         0.1032 
     83 H83       -71.7222   32.9978  -74.1083 H         1 UNK         0.0461 
     84 H84       -69.4032   30.5159  -72.1262 H         1 UNK         0.3453 
     85 H85       -70.4107   30.0357  -73.4691 H         1 UNK         0.3453 
     86 H86       -73.0766   30.3788  -74.0861 H         1 UNK         0.2984 
     87 H87       -73.3745   29.8356  -76.7544 H         1 UNK         0.0554 
     88 H88       -71.5358   30.2824  -78.3685 H         1 UNK         0.0847 
     89 H89       -71.8760   28.5656  -78.2812 H         1 UNK         0.0847 
     90 H90       -70.4581   29.2233  -77.4681 H         1 UNK         0.0847 
     91 H91       -73.2513   27.8798  -75.7060 H         1 UNK         0.3141 
     92 H92       -70.7210   26.1638  -73.8367 H         1 UNK         0.0743 
     93 H93       -72.3042   27.3043  -72.3132 H         1 UNK         0.0784 
     94 H94       -73.6433   26.9981  -73.4056 H         1 UNK         0.0784 
     95 H95       -72.8240   25.6549  -72.6146 H         1 UNK         0.0784 
     96 H96       -73.1394   25.6264  -75.4684 H         1 UNK         0.3213 
     97 H97       -71.3788   23.8707  -77.9437 H         1 UNK         0.0855 
     98 H98       -72.9110   22.4832  -75.6759 H         1 UNK         0.0814 
     99 H99       -71.2981   22.0598  -76.2337 H         1 UNK         0.0814 
    100 H100      -72.6754   21.8426  -77.3014 H         1 UNK         0.0814 
    101 H101      -74.1669   24.0249  -77.1338 H         1 UNK         0.3105 
    102 H102      -74.8262   27.1701  -78.5275 H         1 UNK         0.0547 
    103 H103      -76.4776   26.0697  -80.0323 H         1 UNK         0.0837 
    104 H104      -75.6039   24.5437  -79.9065 H         1 UNK         0.0837 
    105 H105      -74.8548   25.9290  -80.6884 H         1 UNK         0.0837 
    106 H106      -76.5839   25.0877  -77.6685 H         1 UNK         0.3020 
    107 H107      -75.8101   24.9303  -74.3643 H         1 UNK         0.1245 
    108 H108      -78.1583   26.8170  -74.8775 H         1 UNK         0.0781 
    109 H109      -76.7207   27.2910  -74.0351 H         1 UNK         0.0781 
    110 H110      -75.9505   26.3735  -71.6571 H         1 UNK         0.0836 
    111 H111      -77.2266   26.1344  -70.4880 H         1 UNK         0.0836 
    112 H112      -78.3552   24.5096  -75.6350 H         1 UNK         0.3022 
    113 H113      -77.4531   21.5944  -77.4164 H         1 UNK         0.0747 
    114 H114      -79.0574   20.3734  -75.9596 H         1 UNK         0.0793 
    115 H115      -77.5336   20.6011  -75.1186 H         1 UNK         0.0793 
    116 H116      -78.9115   21.6157  -74.7144 H         1 UNK         0.0793 
    117 H117      -80.0113   22.6117  -76.7186 H         1 UNK         0.3047 
    118 H118      -80.1675   25.4479  -78.7568 H         1 UNK         0.0822 
    119 H119      -81.9603   24.3477  -80.0590 H         1 UNK         0.0807 
    120 H120      -81.4245   22.7562  -79.5169 H         1 UNK         0.0807 
    121 H121      -80.3999   23.7266  -80.5653 H         1 UNK         0.0807 
    122 H122      -82.3494   24.1928  -77.6341 H         1 UNK         0.2946 
    123 H123      -83.1920   25.6213  -75.7437 H         1 UNK         0.1144 
    124 H124      -82.1571   23.0239  -74.4436 H         1 UNK         0.0793 
    125 H125      -83.2607   23.1134  -75.8115 H         1 UNK         0.0793 
    126 H126      -83.7794   23.6751  -74.2348 H         1 UNK         0.0793 
    127 H127      -81.0872   25.5518  -73.6849 H         1 UNK         0.2896 
@<TRIPOS>BOND
     1    1    2 1    
     2    1   67 1    
     3    1   68 1    
     4    1   69 1    
     5    2    3 2    
     6    2    4 am   BACKBONE|DICT|INTERRES
     7    4    5 1    
     8    4   70 1    
     9    5    6 1    
    10    5   65 1    
    11    5   71 1    
    12    6    7 1    
    13    6   72 1    
    14    6   73 1    
    15    7    8 1    
    16    8    9 1    
    17    8   74 1    
    18    8   75 1    
    19    9   10 ar   
    20    9   14 ar   
    21   10   11 ar   
    22   10   76 1    
    23   11   12 ar   
    24   11   48 1    
    25   12   13 ar   
    26   12   77 1    
    27   13   14 ar   
    28   13   15 1    
    29   14   78 1    
    30   15   16 1    
    31   15   79 1    
    32   15   80 1    
    33   16   17 1    
    34   17   18 1    
    35   17   81 1    
    36   17   82 1    
    37   18   19 1    
    38   18   22 1    
    39   18   83 1    
    40   19   20 am   BACKBONE|DICT|INTERRES
    41   19   21 2    
    42   20   84 1    
    43   20   85 1    
    44   22   23 am   BACKBONE|DICT|INTERRES
    45   22   86 1    
    46   23   24 2    
    47   23   25 1    
    48   25   26 1    
    49   25   27 1    
    50   25   87 1    
    51   26   88 1    
    52   26   89 1    
    53   26   90 1    
    54   27   28 am   BACKBONE|DICT|INTERRES
    55   27   91 1    
    56   28   29 2    
    57   28   30 1    
    58   30   31 1    
    59   30   32 1    
    60   30   92 1    
    61   31   93 1    
    62   31   94 1    
    63   31   95 1    
    64   32   33 am   BACKBONE|DICT|INTERRES
    65   32   96 1    
    66   33   34 2    
    67   33   35 1    
    68   35   36 1    
    69   35   37 1    
    70   35   97 1    
    71   36   98 1    
    72   36   99 1    
    73   36  100 1    
    74   37   38 am   BACKBONE|DICT|INTERRES
    75   37  101 1    
    76   38   39 2    
    77   38   40 1    
    78   40   41 1    
    79   40   42 1    
    80   40  102 1    
    81   41  103 1    
    82   41  104 1    
    83   41  105 1    
    84   42   43 am   BACKBONE|DICT|INTERRES
    85   42  106 1    
    86   43   44 2    
    87   43   45 1    
    88   45   46 1    
    89   45   49 1    
    90   45  107 1    
    91   46   47 1    
    92   46  108 1    
    93   46  109 1    
    94   47   48 1    
    95   48  110 1    
    96   48  111 1    
    97   49   50 am   BACKBONE|DICT|INTERRES
    98   49  112 1    
    99   50   51 2    
   100   50   52 1    
   101   52   53 1    
   102   52   54 1    
   103   52  113 1    
   104   53  114 1    
   105   53  115 1    
   106   53  116 1    
   107   54   55 am   BACKBONE|DICT|INTERRES
   108   54  117 1    
   109   55   56 2    
   110   55   57 1    
   111   57   58 1    
   112   57   59 1    
   113   57  118 1    
   114   58  119 1    
   115   58  120 1    
   116   58  121 1    
   117   59   60 am   BACKBONE|DICT|INTERRES
   118   59  122 1    
   119   60   61 2    
   120   60   62 1    
   121   62   63 1    
   122   62   64 1    
   123   62  123 1    
   124   63  124 1    
   125   63  125 1    
   126   63  126 1    
   127   64   65 am   BACKBONE|DICT|INTERRES
   128   64  127 1    
   129   65   66 2    
@<TRIPOS>SUBSTRUCTURE
     1 UNK         1 GROUP             0       ****    0 ROOT    
