@<TRIPOS>MOLECULE
3R135
127   129    1
SMALL
USER_CHARGES


@<TRIPOS>ATOM
      1 CA        -83.9766   29.4899  -79.2604 C.3       0 UNK        -0.1998 
      2 C         -82.9351   28.8878  -78.3289 C.2       0 UNK         0.4909 
      3 O         -82.1368   28.0549  -78.7603 O.2       0 UNK        -0.5240 
      4 N         -82.9316   29.3081  -77.0572 N.am      1 UNK        -0.4739 
      5 CA        -82.0479   28.7860  -76.0083 C.3       1 UNK         0.0864 
      6 C6        -81.9273   29.7882  -74.8266 C.3       11 UNK        -0.0881 
      7 S7        -80.2126   29.9130  -74.2267 S.3       11 UNK        -0.2682 
      8 C8        -80.3126   29.0901  -72.6025 C.3       11 UNK         0.0289 
      9 C9        -78.9469   28.6925  -72.0451 C.ar      11 UNK        -0.0687 
     10 C10       -78.7904   27.4489  -71.4247 C.ar      11 UNK        -0.0823 
     11 C11       -77.5602   27.0774  -70.8760 C.ar      11 UNK        -0.0830 
     12 C12       -76.4802   27.9570  -70.9525 C.ar      11 UNK        -0.1021 
     13 C13       -76.5984   29.1848  -71.6108 C.ar      11 UNK        -0.0753 
     14 C14       -77.8435   29.5514  -72.1333 C.ar      11 UNK        -0.0933 
     15 C15       -75.4007   30.1075  -71.8398 C.3       11 UNK         0.0166 
     16 S16       -74.1255   30.1057  -70.5296 S.3       11 UNK        -0.2615 
     17 C17       -73.0477   28.6939  -70.9706 C.3       11 UNK        -0.0865 
     18 CA        -71.8930   29.0881  -71.9247 C.3       10 UNK         0.0862 
     19 C         -70.7747   28.0157  -71.9164 C.2       10 UNK         0.5551 
     20 N         -69.5971   28.3460  -71.4051 N.am      10 UNK        -0.7319 
     21 O         -70.9815   26.8766  -72.3295 O.2       10 UNK        -0.5018 
     22 N         -72.3890   29.2501  -73.2928 N.am      10 UNK        -0.4509 
     23 C         -71.9435   30.1505  -74.1736 C.2       10 UNK         0.4899 
     24 O         -71.1133   31.0224  -73.9098 O.2       10 UNK        -0.4839 
     25 CA        -72.5318   30.0376  -75.5924 C.3       9 UNK         0.0222 
     26 CB        -71.9164   31.0397  -76.5921 C.3       9 UNK        -0.1966 
     27 N         -72.4620   28.6659  -76.1093 N.am      9 UNK        -0.4218 
     28 C         -71.3609   27.9236  -76.3138 C.2       9 UNK         0.5020 
     29 O         -70.2128   28.3365  -76.1433 O.2       9 UNK        -0.5274 
     30 CA        -71.5531   26.4648  -76.7750 C.3       8 UNK         0.0270 
     31 CB        -71.1553   25.4956  -75.6492 C.3       8 UNK        -0.1976 
     32 N         -72.9171   26.1494  -77.2041 N.am      8 UNK        -0.4313 
     33 C         -73.4901   26.5650  -78.3408 C.2       8 UNK         0.5041 
     34 O         -72.9026   27.2086  -79.2108 O.2       8 UNK        -0.5577 
     35 CA        -74.9860   26.2455  -78.5116 C.3       7 UNK         0.0284 
     36 CB        -75.1825   24.8404  -79.1029 C.3       7 UNK        -0.1958 
     37 N         -75.7441   26.3692  -77.2606 N.am      7 UNK        -0.4454 
     38 C         -75.9114   27.5143  -76.5816 C.2       7 UNK         0.5089 
     39 O         -75.4440   28.5964  -76.9339 O.2       7 UNK        -0.5125 
     40 CA        -76.7038   27.4301  -75.2699 C.3       6 UNK         0.0408 
     41 CB        -78.2058   27.3619  -75.5624 C.3       6 UNK        -0.1791 
     42 N         -76.3025   26.2826  -74.4564 N.am      6 UNK        -0.4762 
     43 C         -75.1126   26.1790  -73.8452 C.2       6 UNK         0.5007 
     44 O         -74.2672   27.0764  -73.8473 O.2       6 UNK        -0.5032 
     45 CA        -74.7701   24.8213  -73.1939 C.3       5 UNK         0.0783 
     46 C46       -75.1585   24.7427  -71.6945 C.3       11 UNK        -0.0857 
     47 S47       -76.9348   24.4242  -71.3881 S.3       11 UNK        -0.2512 
     48 C48       -77.3936   25.7256  -70.2001 C.3       11 UNK         0.0225 
     49 N         -75.2929   23.6828  -73.9561 N.am      5 UNK        -0.4615 
     50 C         -74.9299   23.3594  -75.2031 C.2       4 UNK         0.5053 
     51 O         -74.0720   23.9684  -75.8385 O.2       4 UNK        -0.5105 
     52 CA        -75.6547   22.1778  -75.8682 C.3       4 UNK         0.0263 
     53 CB        -74.8197   20.8950  -75.7321 C.3       4 UNK        -0.1981 
     54 N         -77.0019   21.9404  -75.3411 N.am      4 UNK        -0.4224 
     55 C         -78.0442   22.7693  -75.4962 C.2       3 UNK         0.4895 
     56 O         -77.9764   23.8267  -76.1280 O.2       3 UNK        -0.5091 
     57 CA        -79.3735   22.2977  -74.8655 C.3       3 UNK         0.0250 
     58 CB        -79.1959   21.8095  -73.4097 C.3       3 UNK        -0.1996 
     59 N         -80.4705   23.2737  -74.9339 N.am      3 UNK        -0.4254 
     60 C         -80.5162   24.4947  -74.3811 C.2       2 UNK         0.5004 
     61 O         -79.5926   25.0209  -73.7595 O.2       2 UNK        -0.5226 
     62 CA        -81.8483   25.2421  -74.4975 C.3       2 UNK         0.0269 
     63 CB        -82.5788   25.2586  -73.1403 C.3       2 UNK        -0.1926 
     64 N         -81.5987   26.6058  -74.9585 N.am      2 UNK        -0.4687 
     65 C         -82.5144   27.3892  -75.5398 C.2       1 UNK         0.5165 
     66 O         -83.6924   27.0523  -75.6933 O.2       1 UNK        -0.5079 
     67 H67       -83.4884   29.9865  -80.0985 H         1 UNK         0.0900 
     68 H68       -84.6221   28.7066  -79.6568 H         1 UNK         0.0900 
     69 H69       -84.6044   30.2216  -78.7520 H         1 UNK         0.0900 
     70 H70       -83.6358   29.9647  -76.7520 H         1 UNK         0.2959 
     71 H71       -81.0656   28.6580  -76.4695 H         1 UNK         0.1079 
     72 H72       -82.6103   29.5537  -74.0070 H         1 UNK         0.0837 
     73 H73       -82.2027   30.7941  -75.1485 H         1 UNK         0.0837 
     74 H74       -80.9482   28.2083  -72.6929 H         1 UNK         0.0685 
     75 H75       -80.8046   29.7580  -71.8944 H         1 UNK         0.0685 
     76 H76       -79.6254   26.7634  -71.3697 H         1 UNK         0.1434 
     77 H77       -75.5450   27.6642  -70.5073 H         1 UNK         0.1329 
     78 H78       -77.9494   30.5052  -72.6313 H         1 UNK         0.1335 
     79 H79       -74.9492   29.8532  -72.7981 H         1 UNK         0.0680 
     80 H80       -75.7534   31.1353  -71.9375 H         1 UNK         0.0680 
     81 H81       -73.6244   27.8794  -71.4059 H         1 UNK         0.1032 
     82 H82       -72.6492   28.3061  -70.0308 H         1 UNK         0.1032 
     83 H83       -71.4707   30.0320  -71.5730 H         1 UNK         0.0461 
     84 H84       -69.4220   29.2768  -71.0591 H         1 UNK         0.3453 
     85 H85       -68.8638   27.6550  -71.3782 H         1 UNK         0.3453 
     86 H86       -73.0303   28.5258  -73.6077 H         1 UNK         0.2984 
     87 H87       -73.5931   30.2739  -75.5028 H         1 UNK         0.0554 
     88 H88       -72.0703   32.0665  -76.2582 H         1 UNK         0.0847 
     89 H89       -72.3742   30.9473  -77.5770 H         1 UNK         0.0847 
     90 H90       -70.8419   30.8941  -76.7064 H         1 UNK         0.0847 
     91 H91       -73.3599   28.2339  -76.2909 H         1 UNK         0.3141 
     92 H92       -70.8837   26.3007  -77.6218 H         1 UNK         0.0743 
     93 H93       -70.1290   25.6700  -75.3233 H         1 UNK         0.0784 
     94 H94       -71.7971   25.6141  -74.7751 H         1 UNK         0.0784 
     95 H95       -71.2206   24.4573  -75.9752 H         1 UNK         0.0784 
     96 H96       -73.4528   25.5345  -76.5930 H         1 UNK         0.3213 
     97 H97       -75.3983   26.9709  -79.2165 H         1 UNK         0.0855 
     98 H98       -74.7595   24.0670  -78.4620 H         1 UNK         0.0814 
     99 H99       -74.6929   24.7578  -80.0742 H         1 UNK         0.0814 
    100 H100      -76.2384   24.6140  -79.2522 H         1 UNK         0.0814 
    101 H101      -76.1611   25.5270  -76.8866 H         1 UNK         0.3105 
    102 H102      -76.5113   28.3390  -74.6955 H         1 UNK         0.0547 
    103 H103      -78.4771   26.4618  -76.1145 H         1 UNK         0.0837 
    104 H104      -78.5266   28.2206  -76.1530 H         1 UNK         0.0837 
    105 H105      -78.7711   27.3705  -74.6329 H         1 UNK         0.0837 
    106 H106      -76.9552   25.5107  -74.3970 H         1 UNK         0.3020 
    107 H107      -73.6806   24.7494  -73.2403 H         1 UNK         0.1245 
    108 H108      -74.8272   25.6332  -71.1619 H         1 UNK         0.0781 
    109 H109      -74.6095   23.9205  -71.2332 H         1 UNK         0.0781 
    110 H110      -76.6489   25.7789  -69.4043 H         1 UNK         0.0836 
    111 H111      -78.3298   25.4411  -69.7175 H         1 UNK         0.0836 
    112 H112      -76.0219   23.1499  -73.5047 H         1 UNK         0.3022 
    113 H113      -75.7497   22.4105  -76.9307 H         1 UNK         0.0747 
    114 H114      -75.2742   20.0652  -76.2738 H         1 UNK         0.0793 
    115 H115      -73.8186   21.0367  -76.1424 H         1 UNK         0.0793 
    116 H116      -74.7048   20.5951  -74.6897 H         1 UNK         0.0793 
    117 H117      -77.1400   21.0808  -74.8293 H         1 UNK         0.3047 
    118 H118      -79.7004   21.4455  -75.4633 H         1 UNK         0.0822 
    119 H119      -80.1471   21.4895  -72.9842 H         1 UNK         0.0807 
    120 H120      -78.7978   22.5946  -72.7673 H         1 UNK         0.0807 
    121 H121      -78.5210   20.9562  -73.3423 H         1 UNK         0.0807 
    122 H122      -81.2809   22.9607  -75.4498 H         1 UNK         0.2946 
    123 H123      -82.4766   24.7323  -75.2319 H         1 UNK         0.1144 
    124 H124      -83.5552   25.7373  -73.2147 H         1 UNK         0.0793 
    125 H125      -82.0025   25.7888  -72.3812 H         1 UNK         0.0793 
    126 H126      -82.7443   24.2444  -72.7745 H         1 UNK         0.0793 
    127 H127      -80.6464   26.9272  -74.8444 H         1 UNK         0.2896 
@<TRIPOS>BOND
     1    1    2 1    
     2    1   67 1    
     3    1   68 1    
     4    1   69 1    
     5    2    3 2    
     6    2    4 am   BACKBONE|DICT|INTERRES
     7    4    5 1    
     8    4   70 1    
     9    5    6 1    
    10    5   65 1    
    11    5   71 1    
    12    6    7 1    
    13    6   72 1    
    14    6   73 1    
    15    7    8 1    
    16    8    9 1    
    17    8   74 1    
    18    8   75 1    
    19    9   10 ar   
    20    9   14 ar   
    21   10   11 ar   
    22   10   76 1    
    23   11   12 ar   
    24   11   48 1    
    25   12   13 ar   
    26   12   77 1    
    27   13   14 ar   
    28   13   15 1    
    29   14   78 1    
    30   15   16 1    
    31   15   79 1    
    32   15   80 1    
    33   16   17 1    
    34   17   18 1    
    35   17   81 1    
    36   17   82 1    
    37   18   19 1    
    38   18   22 1    
    39   18   83 1    
    40   19   20 am   BACKBONE|DICT|INTERRES
    41   19   21 2    
    42   20   84 1    
    43   20   85 1    
    44   22   23 am   BACKBONE|DICT|INTERRES
    45   22   86 1    
    46   23   24 2    
    47   23   25 1    
    48   25   26 1    
    49   25   27 1    
    50   25   87 1    
    51   26   88 1    
    52   26   89 1    
    53   26   90 1    
    54   27   28 am   BACKBONE|DICT|INTERRES
    55   27   91 1    
    56   28   29 2    
    57   28   30 1    
    58   30   31 1    
    59   30   32 1    
    60   30   92 1    
    61   31   93 1    
    62   31   94 1    
    63   31   95 1    
    64   32   33 am   BACKBONE|DICT|INTERRES
    65   32   96 1    
    66   33   34 2    
    67   33   35 1    
    68   35   36 1    
    69   35   37 1    
    70   35   97 1    
    71   36   98 1    
    72   36   99 1    
    73   36  100 1    
    74   37   38 am   BACKBONE|DICT|INTERRES
    75   37  101 1    
    76   38   39 2    
    77   38   40 1    
    78   40   41 1    
    79   40   42 1    
    80   40  102 1    
    81   41  103 1    
    82   41  104 1    
    83   41  105 1    
    84   42   43 am   BACKBONE|DICT|INTERRES
    85   42  106 1    
    86   43   44 2    
    87   43   45 1    
    88   45   46 1    
    89   45   49 1    
    90   45  107 1    
    91   46   47 1    
    92   46  108 1    
    93   46  109 1    
    94   47   48 1    
    95   48  110 1    
    96   48  111 1    
    97   49   50 am   BACKBONE|DICT|INTERRES
    98   49  112 1    
    99   50   51 2    
   100   50   52 1    
   101   52   53 1    
   102   52   54 1    
   103   52  113 1    
   104   53  114 1    
   105   53  115 1    
   106   53  116 1    
   107   54   55 am   BACKBONE|DICT|INTERRES
   108   54  117 1    
   109   55   56 2    
   110   55   57 1    
   111   57   58 1    
   112   57   59 1    
   113   57  118 1    
   114   58  119 1    
   115   58  120 1    
   116   58  121 1    
   117   59   60 am   BACKBONE|DICT|INTERRES
   118   59  122 1    
   119   60   61 2    
   120   60   62 1    
   121   62   63 1    
   122   62   64 1    
   123   62  123 1    
   124   63  124 1    
   125   63  125 1    
   126   63  126 1    
   127   64   65 am   BACKBONE|DICT|INTERRES
   128   64  127 1    
   129   65   66 2    
@<TRIPOS>SUBSTRUCTURE
     1 UNK         1 GROUP             0       ****    0 ROOT    
