@<TRIPOS>MOLECULE
3R135
127   129    1
SMALL
USER_CHARGES


@<TRIPOS>ATOM
      1 CA        -86.3600   28.7343  -73.8245 C.3       0 UNK        -0.1998 
      2 C         -84.9811   28.3341  -74.3279 C.2       0 UNK         0.4909 
      3 O         -84.8680   27.7523  -75.4079 O.2       0 UNK        -0.5240 
      4 N         -83.9320   28.6498  -73.5592 N.am      1 UNK        -0.4739 
      5 CA        -82.5428   28.2769  -73.8433 C.3       1 UNK         0.0864 
      6 C6        -81.5424   29.2041  -73.1050 C.3       11 UNK        -0.0881 
      7 S7        -81.7202   29.2213  -71.2841 S.3       11 UNK        -0.2682 
      8 C8        -80.5405   30.5284  -70.8177 C.3       11 UNK         0.0289 
      9 C9        -79.1097   30.1505  -71.1723 C.ar      11 UNK        -0.0687 
     10 C10       -78.5240   30.6425  -72.3410 C.ar      11 UNK        -0.0823 
     11 C11       -77.2291   30.2603  -72.6965 C.ar      11 UNK        -0.0830 
     12 C12       -76.5075   29.4041  -71.8609 C.ar      11 UNK        -0.1021 
     13 C13       -77.0673   28.9271  -70.6690 C.ar      11 UNK        -0.0753 
     14 C14       -78.3754   29.3002  -70.3399 C.ar      11 UNK        -0.0933 
     15 C15       -76.3078   27.9990  -69.7200 C.3       11 UNK         0.0166 
     16 S16       -74.4864   28.1152  -69.8133 S.3       11 UNK        -0.2615 
     17 C17       -74.1039   26.8000  -71.0172 C.3       11 UNK        -0.0865 
     18 CA        -72.7793   27.0667  -71.7894 C.3       10 UNK         0.0862 
     19 C         -71.9364   25.7670  -71.9292 C.2       10 UNK         0.5551 
     20 N         -71.8991   25.1082  -73.0823 N.am      10 UNK        -0.7319 
     21 O         -71.2953   25.3511  -70.9677 O.2       10 UNK        -0.5018 
     22 N         -73.0157   27.7183  -73.0877 N.am      10 UNK        -0.4509 
     23 C         -72.6978   28.9826  -73.3903 C.2       10 UNK         0.4899 
     24 O         -72.3487   29.8218  -72.5590 O.2       10 UNK        -0.4839 
     25 CA        -72.7606   29.3623  -74.8879 C.3       9 UNK         0.0222 
     26 CB        -72.0476   30.6960  -75.1985 C.3       9 UNK        -0.1966 
     27 N         -72.2820   28.2933  -75.7815 N.am      9 UNK        -0.4218 
     28 C         -71.0591   27.7370  -75.7588 C.2       9 UNK         0.5020 
     29 O         -70.1750   28.0839  -74.9735 O.2       9 UNK        -0.5274 
     30 CA        -70.7499   26.6172  -76.7673 C.3       8 UNK         0.0270 
     31 CB        -69.6759   25.6401  -76.2345 C.3       8 UNK        -0.1976 
     32 N         -71.9338   25.8655  -77.2044 N.am      8 UNK        -0.4313 
     33 C         -71.9671   25.1715  -78.3529 C.2       8 UNK         0.5041 
     34 O         -71.0761   25.2118  -79.2037 O.2       8 UNK        -0.5577 
     35 CA        -73.1686   24.2439  -78.5885 C.3       7 UNK         0.0284 
     36 CB        -73.1414   23.0575  -77.6105 C.3       7 UNK        -0.1958 
     37 N         -74.4553   24.9311  -78.5078 N.am      7 UNK        -0.4454 
     38 C         -74.8833   25.8593  -79.3748 C.2       7 UNK         0.5089 
     39 O         -74.2429   26.2351  -80.3572 O.2       7 UNK        -0.5125 
     40 CA        -76.2639   26.4804  -79.0971 C.3       6 UNK         0.0408 
     41 CB        -77.3810   25.6135  -79.6994 C.3       6 UNK        -0.1791 
     42 N         -76.5259   26.6920  -77.6720 N.am      6 UNK        -0.4762 
     43 C         -75.8180   27.5098  -76.8792 C.2       6 UNK         0.5007 
     44 O         -74.8514   28.1742  -77.2548 O.2       6 UNK        -0.5032 
     45 CA        -76.2212   27.5252  -75.3943 C.3       5 UNK         0.0783 
     46 C46       -77.5447   28.2899  -75.1480 C.3       11 UNK        -0.0857 
     47 S47       -77.4448   30.0863  -75.4730 S.3       11 UNK        -0.2512 
     48 C48       -76.6129   30.7561  -73.9941 C.3       11 UNK         0.0225 
     49 N         -76.2703   26.1584  -74.8731 N.am      5 UNK        -0.4615 
     50 C         -75.2003   25.3640  -74.7175 C.2       4 UNK         0.5053 
     51 O         -74.0388   25.7330  -74.9195 O.2       4 UNK        -0.5105 
     52 CA        -75.4621   23.9124  -74.2747 C.3       4 UNK         0.0263 
     53 CB        -75.4070   23.8001  -72.7438 C.3       4 UNK        -0.1981 
     54 N         -76.7436   23.3801  -74.7429 N.am      4 UNK        -0.4224 
     55 C         -77.0916   23.2148  -76.0274 C.2       3 UNK         0.4895 
     56 O         -76.3421   23.4462  -76.9740 O.2       3 UNK        -0.5091 
     57 CA        -78.5417   22.7780  -76.3029 C.3       3 UNK         0.0250 
     58 CB        -78.6343   21.2468  -76.3922 C.3       3 UNK        -0.1996 
     59 N         -79.5029   23.2741  -75.3085 N.am      3 UNK        -0.4254 
     60 C         -79.7268   24.5709  -75.0547 C.2       2 UNK         0.5004 
     61 O         -79.1461   25.4922  -75.6359 O.2       2 UNK        -0.5226 
     62 CA        -80.7015   24.8934  -73.9192 C.3       2 UNK         0.0269 
     63 CB        -80.0025   24.7480  -72.5526 C.3       2 UNK        -0.1926 
     64 N         -81.1701   26.2652  -74.0909 N.am      2 UNK        -0.4687 
     65 C         -82.2766   26.7831  -73.5481 C.2       1 UNK         0.5165 
     66 O         -83.0468   26.1380  -72.8298 O.2       1 UNK        -0.5079 
     67 H67       -86.8449   29.3951  -74.5426 H         1 UNK         0.0900 
     68 H68       -86.9841   27.8499  -73.6987 H         1 UNK         0.0900 
     69 H69       -86.3096   29.2525  -72.8671 H         1 UNK         0.0900 
     70 H70       -84.0804   29.0930  -72.6634 H         1 UNK         0.2959 
     71 H71       -82.3811   28.4144  -74.9152 H         1 UNK         0.1079 
     72 H72       -80.5175   28.9249  -73.3555 H         1 UNK         0.0837 
     73 H73       -81.6645   30.2259  -73.4680 H         1 UNK         0.0837 
     74 H74       -80.8249   31.4636  -71.3027 H         1 UNK         0.0685 
     75 H75       -80.6162   30.7065  -69.7440 H         1 UNK         0.0685 
     76 H76       -79.0855   31.2982  -72.9926 H         1 UNK         0.1434 
     77 H77       -75.5071   29.1136  -72.1454 H         1 UNK         0.1329 
     78 H78       -78.8303   28.9226  -69.4340 H         1 UNK         0.1335 
     79 H79       -76.5920   28.2336  -68.6930 H         1 UNK         0.0680 
     80 H80       -76.6234   26.9695  -69.8949 H         1 UNK         0.0680 
     81 H81       -74.0622   25.8703  -70.4453 H         1 UNK         0.1032 
     82 H82       -74.9364   26.6778  -71.7119 H         1 UNK         0.1032 
     83 H83       -72.1494   27.7189  -71.1809 H         1 UNK         0.0461 
     84 H84       -71.3355   24.2757  -73.1418 H         1 UNK         0.3453 
     85 H85       -72.4842   25.3759  -73.8621 H         1 UNK         0.3453 
     86 H86       -73.2830   27.0961  -73.8427 H         1 UNK         0.2984 
     87 H87       -73.8096   29.5130  -75.1296 H         1 UNK         0.0554 
     88 H88       -72.1244   30.9499  -76.2557 H         1 UNK         0.0847 
     89 H89       -70.9894   30.6620  -74.9372 H         1 UNK         0.0847 
     90 H90       -72.4934   31.5179  -74.6370 H         1 UNK         0.0847 
     91 H91       -72.9525   27.9885  -76.4807 H         1 UNK         0.3141 
     92 H92       -70.3327   27.1322  -77.6352 H         1 UNK         0.0743 
     93 H93       -70.0250   25.1087  -75.3490 H         1 UNK         0.0784 
     94 H94       -69.3980   24.8969  -76.9817 H         1 UNK         0.0784 
     95 H95       -68.7595   26.1648  -75.9613 H         1 UNK         0.0784 
     96 H96       -72.7027   25.7837  -76.5466 H         1 UNK         0.3213 
     97 H97       -73.0779   23.8403  -79.5994 H         1 UNK         0.0855 
     98 H98       -73.2569   23.3808  -76.5765 H         1 UNK         0.0814 
     99 H99       -72.1957   22.5179  -77.6787 H         1 UNK         0.0814 
    100 H100      -73.9363   22.3443  -77.8294 H         1 UNK         0.0814 
    101 H101      -75.1015   24.6105  -77.7905 H         1 UNK         0.3105 
    102 H102      -76.2910   27.4569  -79.5850 H         1 UNK         0.0547 
    103 H103      -78.3578   26.0816  -79.5765 H         1 UNK         0.0837 
    104 H104      -77.2255   25.4666  -80.7691 H         1 UNK         0.0837 
    105 H105      -77.4213   24.6261  -79.2382 H         1 UNK         0.0837 
    106 H106      -77.2823   26.1602  -77.2611 H         1 UNK         0.3020 
    107 H107      -75.4394   28.0399  -74.8391 H         1 UNK         0.1245 
    108 H108      -77.8917   28.1264  -74.1274 H         1 UNK         0.0781 
    109 H109      -78.3384   27.8977  -75.7842 H         1 UNK         0.0781 
    110 H110      -76.6690   31.8452  -74.0235 H         1 UNK         0.0836 
    111 H111      -75.5524   30.5116  -74.0347 H         1 UNK         0.0836 
    112 H112      -77.1950   25.7642  -74.7538 H         1 UNK         0.3022 
    113 H113      -74.6702   23.2890  -74.6925 H         1 UNK         0.0747 
    114 H114      -75.5577   22.7712  -72.4164 H         1 UNK         0.0793 
    115 H115      -74.4354   24.1120  -72.3628 H         1 UNK         0.0793 
    116 H116      -76.1649   24.4194  -72.2621 H         1 UNK         0.0793 
    117 H117      -77.4261   23.1519  -74.0354 H         1 UNK         0.3047 
    118 H118      -78.8251   23.1953  -77.2716 H         1 UNK         0.0822 
    119 H119      -78.3895   20.7692  -75.4426 H         1 UNK         0.0807 
    120 H120      -77.9421   20.8577  -77.1405 H         1 UNK         0.0807 
    121 H121      -79.6348   20.9255  -76.6826 H         1 UNK         0.0807 
    122 H122      -80.0122   22.5766  -74.7841 H         1 UNK         0.2946 
    123 H123      -81.5517   24.2100  -73.9817 H         1 UNK         0.1144 
    124 H124      -79.6332   23.7330  -72.4016 H         1 UNK         0.0793 
    125 H125      -79.1516   25.4249  -72.4616 H         1 UNK         0.0793 
    126 H126      -80.6857   24.9636  -71.7309 H         1 UNK         0.0793 
    127 H127      -80.5919   26.8184  -74.7117 H         1 UNK         0.2896 
@<TRIPOS>BOND
     1    1    2 1    
     2    1   67 1    
     3    1   68 1    
     4    1   69 1    
     5    2    3 2    
     6    2    4 am   BACKBONE|DICT|INTERRES
     7    4    5 1    
     8    4   70 1    
     9    5    6 1    
    10    5   65 1    
    11    5   71 1    
    12    6    7 1    
    13    6   72 1    
    14    6   73 1    
    15    7    8 1    
    16    8    9 1    
    17    8   74 1    
    18    8   75 1    
    19    9   10 ar   
    20    9   14 ar   
    21   10   11 ar   
    22   10   76 1    
    23   11   12 ar   
    24   11   48 1    
    25   12   13 ar   
    26   12   77 1    
    27   13   14 ar   
    28   13   15 1    
    29   14   78 1    
    30   15   16 1    
    31   15   79 1    
    32   15   80 1    
    33   16   17 1    
    34   17   18 1    
    35   17   81 1    
    36   17   82 1    
    37   18   19 1    
    38   18   22 1    
    39   18   83 1    
    40   19   20 am   BACKBONE|DICT|INTERRES
    41   19   21 2    
    42   20   84 1    
    43   20   85 1    
    44   22   23 am   BACKBONE|DICT|INTERRES
    45   22   86 1    
    46   23   24 2    
    47   23   25 1    
    48   25   26 1    
    49   25   27 1    
    50   25   87 1    
    51   26   88 1    
    52   26   89 1    
    53   26   90 1    
    54   27   28 am   BACKBONE|DICT|INTERRES
    55   27   91 1    
    56   28   29 2    
    57   28   30 1    
    58   30   31 1    
    59   30   32 1    
    60   30   92 1    
    61   31   93 1    
    62   31   94 1    
    63   31   95 1    
    64   32   33 am   BACKBONE|DICT|INTERRES
    65   32   96 1    
    66   33   34 2    
    67   33   35 1    
    68   35   36 1    
    69   35   37 1    
    70   35   97 1    
    71   36   98 1    
    72   36   99 1    
    73   36  100 1    
    74   37   38 am   BACKBONE|DICT|INTERRES
    75   37  101 1    
    76   38   39 2    
    77   38   40 1    
    78   40   41 1    
    79   40   42 1    
    80   40  102 1    
    81   41  103 1    
    82   41  104 1    
    83   41  105 1    
    84   42   43 am   BACKBONE|DICT|INTERRES
    85   42  106 1    
    86   43   44 2    
    87   43   45 1    
    88   45   46 1    
    89   45   49 1    
    90   45  107 1    
    91   46   47 1    
    92   46  108 1    
    93   46  109 1    
    94   47   48 1    
    95   48  110 1    
    96   48  111 1    
    97   49   50 am   BACKBONE|DICT|INTERRES
    98   49  112 1    
    99   50   51 2    
   100   50   52 1    
   101   52   53 1    
   102   52   54 1    
   103   52  113 1    
   104   53  114 1    
   105   53  115 1    
   106   53  116 1    
   107   54   55 am   BACKBONE|DICT|INTERRES
   108   54  117 1    
   109   55   56 2    
   110   55   57 1    
   111   57   58 1    
   112   57   59 1    
   113   57  118 1    
   114   58  119 1    
   115   58  120 1    
   116   58  121 1    
   117   59   60 am   BACKBONE|DICT|INTERRES
   118   59  122 1    
   119   60   61 2    
   120   60   62 1    
   121   62   63 1    
   122   62   64 1    
   123   62  123 1    
   124   63  124 1    
   125   63  125 1    
   126   63  126 1    
   127   64   65 am   BACKBONE|DICT|INTERRES
   128   64  127 1    
   129   65   66 2    
@<TRIPOS>SUBSTRUCTURE
     1 UNK         1 GROUP             0       ****    0 ROOT    
