@<TRIPOS>MOLECULE
3R135
127   129    1
SMALL
USER_CHARGES


@<TRIPOS>ATOM
      1 CA        -83.7264   24.3832  -67.8715 C.3       0 UNK        -0.1998 
      2 C         -83.8946   25.1751  -69.1596 C.2       0 UNK         0.4909 
      3 O         -84.8972   25.0058  -69.8539 O.2       0 UNK        -0.5240 
      4 N         -82.9239   26.0426  -69.4776 N.am      1 UNK        -0.4739 
      5 CA        -82.8881   26.8602  -70.6964 C.3       1 UNK         0.0864 
      6 C6        -81.8092   27.9655  -70.5817 C.3       11 UNK        -0.0881 
      7 S7        -82.0090   29.3135  -71.7926 S.3       11 UNK        -0.2682 
      8 C8        -80.4493   30.2267  -71.5578 C.3       11 UNK         0.0289 
      9 C9        -79.3114   29.6094  -72.3581 C.ar      11 UNK        -0.0687 
     10 C10       -79.0712   30.0312  -73.6694 C.ar      11 UNK        -0.0823 
     11 C11       -78.0447   29.4555  -74.4233 C.ar      11 UNK        -0.0830 
     12 C12       -77.2679   28.4419  -73.8548 C.ar      11 UNK        -0.1021 
     13 C13       -77.4776   28.0245  -72.5374 C.ar      11 UNK        -0.0753 
     14 C14       -78.4994   28.6206  -71.7933 C.ar      11 UNK        -0.0933 
     15 C15       -76.6381   26.9136  -71.9087 C.3       11 UNK         0.0166 
     16 S16       -74.8850   26.9043  -72.4197 S.3       11 UNK        -0.2615 
     17 C17       -74.3037   28.5243  -71.8080 C.3       11 UNK        -0.0865 
     18 CA        -73.8509   29.4632  -72.9560 C.3       10 UNK         0.0862 
     19 C         -73.5309   30.8780  -72.4036 C.2       10 UNK         0.5551 
     20 N         -74.4799   31.8009  -72.4792 N.am      10 UNK        -0.7319 
     21 O         -72.4537   31.1274  -71.8653 O.2       10 UNK        -0.5018 
     22 N         -72.7393   28.8711  -73.7125 N.am      10 UNK        -0.4509 
     23 C         -72.1530   29.3759  -74.8030 C.2       10 UNK         0.4899 
     24 O         -72.4889   30.4330  -75.3358 O.2       10 UNK        -0.4839 
     25 CA        -71.0212   28.5511  -75.4475 C.3       9 UNK         0.0222 
     26 CB        -69.6457   28.9751  -74.8954 C.3       9 UNK        -0.1966 
     27 N         -71.2055   27.0893  -75.3955 N.am      9 UNK        -0.4218 
     28 C         -71.1684   26.2752  -74.3288 C.2       9 UNK         0.5020 
     29 O         -70.9795   26.6747  -73.1789 O.2       9 UNK        -0.5274 
     30 CA        -71.3957   24.7721  -74.5649 C.3       8 UNK         0.0270 
     31 CB        -72.3621   24.1780  -73.5230 C.3       8 UNK        -0.1976 
     32 N         -71.9297   24.4808  -75.8972 N.am      8 UNK        -0.4313 
     33 C         -71.3079   23.7585  -76.8365 C.2       8 UNK         0.5041 
     34 O         -70.1415   23.3733  -76.7463 O.2       8 UNK        -0.5577 
     35 CA        -72.1265   23.3741  -78.0764 C.3       7 UNK         0.0284 
     36 CB        -73.0973   22.2291  -77.7384 C.3       7 UNK        -0.1958 
     37 N         -72.8884   24.5025  -78.6172 N.am      7 UNK        -0.4454 
     38 C         -72.6687   25.0616  -79.8160 C.2       7 UNK         0.5089 
     39 O         -71.7453   24.7367  -80.5637 O.2       7 UNK        -0.5125 
     40 CA        -73.6554   26.1459  -80.2942 C.3       6 UNK         0.0408 
     41 CB        -74.6093   25.5669  -81.3518 C.3       6 UNK        -0.1791 
     42 N         -74.4497   26.7460  -79.2200 N.am      6 UNK        -0.4762 
     43 C         -73.9676   27.6017  -78.3085 C.2       6 UNK         0.5007 
     44 O         -72.8011   27.9926  -78.2964 O.2       6 UNK        -0.5032 
     45 CA        -74.9354   28.0681  -77.2009 C.3       5 UNK         0.0783 
     46 C46       -75.5964   29.4175  -77.5863 C.3       11 UNK        -0.0857 
     47 S47       -76.0782   30.4029  -76.1302 S.3       11 UNK        -0.2512 
     48 C48       -77.8051   29.8960  -75.8621 C.3       11 UNK         0.0225 
     49 N         -75.9268   27.0417  -76.8382 N.am      5 UNK        -0.4615 
     50 C         -75.6401   25.8274  -76.3491 C.2       4 UNK         0.5053 
     51 O         -74.4844   25.4219  -76.2197 O.2       4 UNK        -0.5105 
     52 CA        -76.8101   24.8938  -75.9689 C.3       4 UNK         0.0263 
     53 CB        -76.3934   23.8657  -74.8997 C.3       4 UNK        -0.1981 
     54 N         -78.0240   25.5750  -75.5057 N.am      4 UNK        -0.4224 
     55 C         -78.9141   26.2232  -76.2688 C.2       3 UNK         0.4895 
     56 O         -78.7396   26.4374  -77.4691 O.2       3 UNK        -0.5091 
     57 CA        -80.1852   26.7503  -75.5690 C.3       3 UNK         0.0250 
     58 CB        -81.3778   26.9011  -76.5370 C.3       3 UNK        -0.1996 
     59 N         -80.5676   25.9870  -74.3724 N.am      3 UNK        -0.4254 
     60 C         -80.9570   24.7032  -74.3211 C.2       2 UNK         0.5004 
     61 O         -81.0169   23.9620  -75.3026 O.2       2 UNK        -0.5226 
     62 CA        -81.3282   24.1296  -72.9397 C.3       2 UNK         0.0269 
     63 CB        -80.1892   23.2385  -72.4150 C.3       2 UNK        -0.1926 
     64 N         -81.6581   25.1248  -71.9117 N.am      2 UNK        -0.4687 
     65 C         -82.6916   25.9810  -71.9503 C.2       1 UNK         0.5165 
     66 O         -83.4791   26.0661  -72.8935 O.2       1 UNK        -0.5079 
     67 H67       -84.5584   24.5832  -67.1968 H         1 UNK         0.0900 
     68 H68       -83.7119   23.3152  -68.0875 H         1 UNK         0.0900 
     69 H69       -82.8017   24.6367  -67.3536 H         1 UNK         0.0900 
     70 H70       -82.1333   26.1406  -68.8564 H         1 UNK         0.2959 
     71 H71       -83.8635   27.3444  -70.7882 H         1 UNK         0.1079 
     72 H72       -80.8108   27.5368  -70.6615 H         1 UNK         0.0837 
     73 H73       -81.8579   28.4250  -69.5928 H         1 UNK         0.0837 
     74 H74       -80.1957   30.2663  -70.4972 H         1 UNK         0.0685 
     75 H75       -80.6000   31.2610  -71.8705 H         1 UNK         0.0685 
     76 H76       -79.6952   30.7998  -74.1050 H         1 UNK         0.1434 
     77 H77       -76.4831   27.9862  -74.4381 H         1 UNK         0.1329 
     78 H78       -78.6686   28.3068  -70.7728 H         1 UNK         0.1335 
     79 H79       -76.6754   26.9785  -70.8201 H         1 UNK         0.0680 
     80 H80       -77.0812   25.9536  -72.1751 H         1 UNK         0.0680 
     81 H81       -73.4821   28.3529  -71.1098 H         1 UNK         0.1032 
     82 H82       -75.0994   28.9920  -71.2249 H         1 UNK         0.1032 
     83 H83       -74.6792   29.5622  -73.6575 H         1 UNK         0.0461 
     84 H84       -74.3007   32.7220  -72.1116 H         1 UNK         0.3453 
     85 H85       -75.3649   31.5983  -72.9181 H         1 UNK         0.3453 
     86 H86       -72.3454   28.0169  -73.3303 H         1 UNK         0.2984 
     87 H87       -71.0249   28.8025  -76.5086 H         1 UNK         0.0554 
     88 H88       -69.4755   30.0401  -75.0589 H         1 UNK         0.0847 
     89 H89       -68.8360   28.4382  -75.3894 H         1 UNK         0.0847 
     90 H90       -69.5616   28.7989  -73.8227 H         1 UNK         0.0847 
     91 H91       -71.4002   26.6565  -76.2880 H         1 UNK         0.3141 
     92 H92       -70.4237   24.2939  -74.4298 H         1 UNK         0.0743 
     93 H93       -72.4640   23.1002  -73.6497 H         1 UNK         0.0784 
     94 H94       -72.0097   24.3500  -72.5052 H         1 UNK         0.0784 
     95 H95       -73.3568   24.6171  -73.6050 H         1 UNK         0.0784 
     96 H96       -72.8958   24.7763  -76.0505 H         1 UNK         0.3213 
     97 H97       -71.4218   22.9973  -78.8210 H         1 UNK         0.0855 
     98 H98       -73.8464   22.5327  -77.0061 H         1 UNK         0.0814 
     99 H99       -72.5631   21.3731  -77.3237 H         1 UNK         0.0814 
    100 H100      -73.6222   21.8817  -78.6284 H         1 UNK         0.0814 
    101 H101      -73.6395   24.8662  -78.0434 H         1 UNK         0.3105 
    102 H102      -73.0670   26.9358  -80.7663 H         1 UNK         0.0547 
    103 H103      -75.2345   24.7728  -80.9416 H         1 UNK         0.0837 
    104 H104      -74.0532   25.1425  -82.1890 H         1 UNK         0.0837 
    105 H105      -75.2653   26.3359  -81.7600 H         1 UNK         0.0837 
    106 H106      -75.4205   26.4732  -79.1583 H         1 UNK         0.3020 
    107 H107      -74.3148   28.2274  -76.3175 H         1 UNK         0.1245 
    108 H108      -76.4493   29.2694  -78.2510 H         1 UNK         0.0781 
    109 H109      -74.8976   30.0467  -78.1423 H         1 UNK         0.0781 
    110 H110      -78.0759   29.0827  -76.5337 H         1 UNK         0.0836 
    111 H111      -78.4525   30.7339  -76.1251 H         1 UNK         0.0836 
    112 H112      -76.9017   27.2579  -77.0057 H         1 UNK         0.3022 
    113 H113      -77.0658   24.3411  -76.8751 H         1 UNK         0.0747 
    114 H114      -76.0751   24.3526  -73.9771 H         1 UNK         0.0793 
    115 H115      -77.2122   23.1876  -74.6581 H         1 UNK         0.0793 
    116 H116      -75.5620   23.2494  -75.2440 H         1 UNK         0.0793 
    117 H117      -78.2322   25.4898  -74.5223 H         1 UNK         0.3047 
    118 H118      -79.9456   27.7495  -75.2129 H         1 UNK         0.0822 
    119 H119      -82.2607   27.2793  -76.0214 H         1 UNK         0.0807 
    120 H120      -81.6428   25.9531  -77.0060 H         1 UNK         0.0807 
    121 H121      -81.1459   27.6046  -77.3377 H         1 UNK         0.0807 
    122 H122      -80.5528   26.5017  -73.5029 H         1 UNK         0.2946 
    123 H123      -82.2131   23.5062  -73.0874 H         1 UNK         0.1144 
    124 H124      -80.4737   22.7311  -71.4929 H         1 UNK         0.0793 
    125 H125      -79.2836   23.8137  -72.2176 H         1 UNK         0.0793 
    126 H126      -79.9312   22.4644  -73.1394 H         1 UNK         0.0793 
    127 H127      -81.0872   25.1117  -71.0790 H         1 UNK         0.2896 
@<TRIPOS>BOND
     1    1    2 1    
     2    1   67 1    
     3    1   68 1    
     4    1   69 1    
     5    2    3 2    
     6    2    4 am   BACKBONE|DICT|INTERRES
     7    4    5 1    
     8    4   70 1    
     9    5    6 1    
    10    5   65 1    
    11    5   71 1    
    12    6    7 1    
    13    6   72 1    
    14    6   73 1    
    15    7    8 1    
    16    8    9 1    
    17    8   74 1    
    18    8   75 1    
    19    9   10 ar   
    20    9   14 ar   
    21   10   11 ar   
    22   10   76 1    
    23   11   12 ar   
    24   11   48 1    
    25   12   13 ar   
    26   12   77 1    
    27   13   14 ar   
    28   13   15 1    
    29   14   78 1    
    30   15   16 1    
    31   15   79 1    
    32   15   80 1    
    33   16   17 1    
    34   17   18 1    
    35   17   81 1    
    36   17   82 1    
    37   18   19 1    
    38   18   22 1    
    39   18   83 1    
    40   19   20 am   BACKBONE|DICT|INTERRES
    41   19   21 2    
    42   20   84 1    
    43   20   85 1    
    44   22   23 am   BACKBONE|DICT|INTERRES
    45   22   86 1    
    46   23   24 2    
    47   23   25 1    
    48   25   26 1    
    49   25   27 1    
    50   25   87 1    
    51   26   88 1    
    52   26   89 1    
    53   26   90 1    
    54   27   28 am   BACKBONE|DICT|INTERRES
    55   27   91 1    
    56   28   29 2    
    57   28   30 1    
    58   30   31 1    
    59   30   32 1    
    60   30   92 1    
    61   31   93 1    
    62   31   94 1    
    63   31   95 1    
    64   32   33 am   BACKBONE|DICT|INTERRES
    65   32   96 1    
    66   33   34 2    
    67   33   35 1    
    68   35   36 1    
    69   35   37 1    
    70   35   97 1    
    71   36   98 1    
    72   36   99 1    
    73   36  100 1    
    74   37   38 am   BACKBONE|DICT|INTERRES
    75   37  101 1    
    76   38   39 2    
    77   38   40 1    
    78   40   41 1    
    79   40   42 1    
    80   40  102 1    
    81   41  103 1    
    82   41  104 1    
    83   41  105 1    
    84   42   43 am   BACKBONE|DICT|INTERRES
    85   42  106 1    
    86   43   44 2    
    87   43   45 1    
    88   45   46 1    
    89   45   49 1    
    90   45  107 1    
    91   46   47 1    
    92   46  108 1    
    93   46  109 1    
    94   47   48 1    
    95   48  110 1    
    96   48  111 1    
    97   49   50 am   BACKBONE|DICT|INTERRES
    98   49  112 1    
    99   50   51 2    
   100   50   52 1    
   101   52   53 1    
   102   52   54 1    
   103   52  113 1    
   104   53  114 1    
   105   53  115 1    
   106   53  116 1    
   107   54   55 am   BACKBONE|DICT|INTERRES
   108   54  117 1    
   109   55   56 2    
   110   55   57 1    
   111   57   58 1    
   112   57   59 1    
   113   57  118 1    
   114   58  119 1    
   115   58  120 1    
   116   58  121 1    
   117   59   60 am   BACKBONE|DICT|INTERRES
   118   59  122 1    
   119   60   61 2    
   120   60   62 1    
   121   62   63 1    
   122   62   64 1    
   123   62  123 1    
   124   63  124 1    
   125   63  125 1    
   126   63  126 1    
   127   64   65 am   BACKBONE|DICT|INTERRES
   128   64  127 1    
   129   65   66 2    
@<TRIPOS>SUBSTRUCTURE
     1 UNK         1 GROUP             0       ****    0 ROOT    
