@<TRIPOS>MOLECULE
3R135
127   129    1
SMALL
USER_CHARGES


@<TRIPOS>ATOM
      1 CA        -85.5989   27.6362  -74.1493 C.3       0 UNK        -0.1998 
      2 C         -84.4827   28.6634  -74.0311 C.2       0 UNK         0.4909 
      3 O         -84.2396   29.4157  -74.9754 O.2       0 UNK        -0.5240 
      4 N         -83.8117   28.7087  -72.8744 N.am      1 UNK        -0.4739 
      5 CA        -82.6505   29.5631  -72.6098 C.3       1 UNK         0.0864 
      6 C6        -82.4020   29.7506  -71.0882 C.3       11 UNK        -0.0881 
      7 S7        -82.3832   28.2003  -70.1157 S.3       11 UNK        -0.2682 
      8 C8        -80.7457   28.2462  -69.3152 C.3       11 UNK         0.0289 
      9 C9        -79.6269   27.7285  -70.2113 C.ar      11 UNK        -0.0687 
     10 C10       -79.6295   26.3936  -70.6328 C.ar      11 UNK        -0.0823 
     11 C11       -78.5767   25.8903  -71.4017 C.ar      11 UNK        -0.0830 
     12 C12       -77.5137   26.7287  -71.7385 C.ar      11 UNK        -0.1021 
     13 C13       -77.4977   28.0685  -71.3371 C.ar      11 UNK        -0.0753 
     14 C14       -78.5613   28.5622  -70.5724 C.ar      11 UNK        -0.0933 
     15 C15       -76.3306   28.9779  -71.7151 C.3       11 UNK         0.0166 
     16 S16       -75.8423   28.7802  -73.4587 S.3       11 UNK        -0.2615 
     17 C17       -74.5475   30.0471  -73.6492 C.3       11 UNK        -0.0865 
     18 CA        -74.1930   30.2764  -75.1433 C.3       10 UNK         0.0862 
     19 C         -73.1408   31.4125  -75.3103 C.2       10 UNK         0.5551 
     20 N         -71.9908   31.1822  -75.9343 N.am      10 UNK        -0.7319 
     21 O         -73.3783   32.5333  -74.8671 O.2       10 UNK        -0.5018 
     22 N         -73.8334   29.0136  -75.8036 N.am      10 UNK        -0.4509 
     23 C         -73.9200   28.7613  -77.1138 C.2       10 UNK         0.4899 
     24 O         -74.3760   29.5538  -77.9395 O.2       10 UNK        -0.4839 
     25 CA        -73.3844   27.3867  -77.5637 C.3       9 UNK         0.0222 
     26 CB        -73.0898   27.3174  -79.0761 C.3       9 UNK        -0.1966 
     27 N         -72.2229   26.9337  -76.7830 N.am      9 UNK        -0.4218 
     28 C         -71.0543   27.5801  -76.6212 C.2       9 UNK         0.5020 
     29 O         -70.7979   28.6613  -77.1533 O.2       9 UNK        -0.5274 
     30 CA        -70.0098   26.9724  -75.6629 C.3       8 UNK         0.0270 
     31 CB        -69.8277   27.8792  -74.4326 C.3       8 UNK        -0.1976 
     32 N         -70.3415   25.6231  -75.2024 N.am      8 UNK        -0.4313 
     33 C         -70.2119   24.5049  -75.9279 C.2       8 UNK         0.5041 
     34 O         -69.7109   24.4721  -77.0523 O.2       8 UNK        -0.5577 
     35 CA        -70.7589   23.2059  -75.3039 C.3       7 UNK         0.0284 
     36 CB        -69.6194   22.4000  -74.6590 C.3       7 UNK        -0.1958 
     37 N         -71.8311   23.4055  -74.3168 N.am      7 UNK        -0.4454 
     38 C         -73.0150   23.9773  -74.5747 C.2       7 UNK         0.5089 
     39 O         -73.3113   24.4772  -75.6621 O.2       7 UNK        -0.5125 
     40 CA        -74.0104   24.0624  -73.4116 C.3       6 UNK         0.0408 
     41 CB        -73.9759   25.4668  -72.7906 C.3       6 UNK        -0.1791 
     42 N         -75.3482   23.7899  -73.9312 N.am      6 UNK        -0.4762 
     43 C         -75.9621   22.5989  -73.8620 C.2       6 UNK         0.5007 
     44 O         -75.5689   21.6680  -73.1575 O.2       6 UNK        -0.5032 
     45 CA        -77.2001   22.3862  -74.7634 C.3       5 UNK         0.0783 
     46 C46       -78.5306   22.5829  -73.9897 C.3       11 UNK        -0.0857 
     47 S47       -78.9480   24.3285  -73.6428 S.3       11 UNK        -0.2512 
     48 C48       -78.5655   24.4430  -71.8679 C.3       11 UNK         0.0225 
     49 N         -77.1428   23.2015  -75.9801 N.am      5 UNK        -0.4615 
     50 C         -76.2384   23.0738  -76.9606 C.2       4 UNK         0.5053 
     51 O         -75.4699   22.1148  -77.0410 O.2       4 UNK        -0.5105 
     52 CA        -76.1563   24.1953  -78.0215 C.3       4 UNK         0.0263 
     53 CB        -76.2050   23.6166  -79.4465 C.3       4 UNK        -0.1981 
     54 N         -77.1753   25.2485  -77.9080 N.am      4 UNK        -0.4224 
     55 C         -77.3008   26.1358  -76.9113 C.2       3 UNK         0.4895 
     56 O         -76.5453   26.1830  -75.9370 O.2       3 UNK        -0.5091 
     57 CA        -78.5106   27.0779  -77.0001 C.3       3 UNK         0.0250 
     58 CB        -79.8341   26.2820  -77.0830 C.3       3 UNK        -0.1996 
     59 N         -78.5212   27.9481  -75.8280 N.am      3 UNK        -0.4254 
     60 C         -79.2961   29.0235  -75.6522 C.2       2 UNK         0.5004 
     61 O         -80.0585   29.4788  -76.5086 O.2       2 UNK        -0.5226 
     62 CA        -79.1898   29.7242  -74.2883 C.3       2 UNK         0.0269 
     63 CB        -78.4171   31.0485  -74.4116 C.3       2 UNK        -0.1926 
     64 N         -80.4899   29.9854  -73.6693 N.am      2 UNK        -0.4687 
     65 C         -81.3909   29.0495  -73.3371 C.2       1 UNK         0.5165 
     66 O         -81.2464   27.8424  -73.5460 O.2       1 UNK        -0.5079 
     67 H67       -86.5468   28.1332  -74.3545 H         1 UNK         0.0900 
     68 H68       -85.7130   27.0518  -73.2364 H         1 UNK         0.0900 
     69 H69       -85.3897   26.9483  -74.9681 H         1 UNK         0.0900 
     70 H70       -84.0240   28.0457  -72.1419 H         1 UNK         0.2959 
     71 H71       -82.8768   30.5484  -73.0246 H         1 UNK         0.1079 
     72 H72       -81.4823   30.3123  -70.9135 H         1 UNK         0.0837 
     73 H73       -83.1975   30.3734  -70.6764 H         1 UNK         0.0837 
     74 H74       -80.7848   27.6217  -68.4216 H         1 UNK         0.0685 
     75 H75       -80.5370   29.2579  -68.9640 H         1 UNK         0.0685 
     76 H76       -80.4528   25.7486  -70.3578 H         1 UNK         0.1434 
     77 H77       -76.7059   26.3350  -72.3378 H         1 UNK         0.1329 
     78 H78       -78.5525   29.5927  -70.2449 H         1 UNK         0.1335 
     79 H79       -75.4782   28.7491  -71.0744 H         1 UNK         0.0680 
     80 H80       -76.5903   30.0231  -71.5404 H         1 UNK         0.0680 
     81 H81       -73.6664   29.7389  -73.0834 H         1 UNK         0.1032 
     82 H82       -74.9004   30.9749  -73.1945 H         1 UNK         0.1032 
     83 H83       -75.0955   30.6465  -75.6332 H         1 UNK         0.0461 
     84 H84       -71.3288   31.9351  -76.0330 H         1 UNK         0.3453 
     85 H85       -71.7785   30.2737  -76.3300 H         1 UNK         0.3453 
     86 H86       -73.4665   28.2924  -75.2026 H         1 UNK         0.2984 
     87 H87       -74.1820   26.6766  -77.3497 H         1 UNK         0.0554 
     88 H88       -72.7439   26.3255  -79.3665 H         1 UNK         0.0847 
     89 H89       -72.3285   28.0397  -79.3725 H         1 UNK         0.0847 
     90 H90       -73.9863   27.5299  -79.6598 H         1 UNK         0.0847 
     91 H91       -72.3606   26.0463  -76.3056 H         1 UNK         0.3141 
     92 H92       -69.0611   26.9318  -76.2024 H         1 UNK         0.0743 
     93 H93       -69.5328   28.8873  -74.7283 H         1 UNK         0.0784 
     94 H94       -70.7481   27.9676  -73.8539 H         1 UNK         0.0784 
     95 H95       -69.0487   27.4997  -73.7710 H         1 UNK         0.0784 
     96 H96       -70.7466   25.5426  -74.2814 H         1 UNK         0.3213 
     97 H97       -71.1767   22.6130  -76.1207 H         1 UNK         0.0855 
     98 H98       -69.1793   22.9279  -73.8121 H         1 UNK         0.0814 
     99 H99       -68.8192   22.2127  -75.3768 H         1 UNK         0.0814 
    100 H100      -69.9679   21.4287  -74.3073 H         1 UNK         0.0814 
    101 H101      -71.6654   23.0347  -73.3914 H         1 UNK         0.3105 
    102 H102      -73.7354   23.3356  -72.6444 H         1 UNK         0.0547 
    103 H103      -74.3025   26.2278  -73.5001 H         1 UNK         0.0837 
    104 H104      -74.6163   25.5237  -71.9113 H         1 UNK         0.0837 
    105 H105      -72.9686   25.7315  -72.4670 H         1 UNK         0.0837 
    106 H106      -75.7128   24.4784  -74.5808 H         1 UNK         0.3020 
    107 H107      -77.1604   21.3412  -75.0799 H         1 UNK         0.1245 
    108 H108      -78.5315   22.0062  -73.0626 H         1 UNK         0.0781 
    109 H109      -79.3484   22.1713  -74.5831 H         1 UNK         0.0781 
    110 H110      -77.5824   24.0115  -71.6740 H         1 UNK         0.0836 
    111 H111      -79.2843   23.8470  -71.3035 H         1 UNK         0.0836 
    112 H112      -77.7235   24.0272  -75.9728 H         1 UNK         0.3022 
    113 H113      -75.1807   24.6641  -77.8856 H         1 UNK         0.0747 
    114 H114      -76.0618   24.3947  -80.1966 H         1 UNK         0.0793 
    115 H115      -75.4164   22.8785  -79.6000 H         1 UNK         0.0793 
    116 H116      -77.1566   23.1233  -79.6483 H         1 UNK         0.0793 
    117 H117      -77.8561   25.2758  -78.6535 H         1 UNK         0.3047 
    118 H118      -78.3926   27.6956  -77.8926 H         1 UNK         0.0822 
    119 H119      -79.8643   25.6300  -77.9561 H         1 UNK         0.0807 
    120 H120      -80.6971   26.9430  -77.1617 H         1 UNK         0.0807 
    121 H121      -79.9812   25.6577  -76.2011 H         1 UNK         0.0807 
    122 H122      -77.8636   27.6680  -75.1077 H         1 UNK         0.2946 
    123 H123      -78.6550   29.0612  -73.6096 H         1 UNK         0.1144 
    124 H124      -77.4558   30.8966  -74.9029 H         1 UNK         0.0793 
    125 H125      -78.2135   31.4820  -73.4324 H         1 UNK         0.0793 
    126 H126      -78.9675   31.7827  -75.0011 H         1 UNK         0.0793 
    127 H127      -80.7039   30.9540  -73.4828 H         1 UNK         0.2896 
@<TRIPOS>BOND
     1    1    2 1    
     2    1   67 1    
     3    1   68 1    
     4    1   69 1    
     5    2    3 2    
     6    2    4 am   BACKBONE|DICT|INTERRES
     7    4    5 1    
     8    4   70 1    
     9    5    6 1    
    10    5   65 1    
    11    5   71 1    
    12    6    7 1    
    13    6   72 1    
    14    6   73 1    
    15    7    8 1    
    16    8    9 1    
    17    8   74 1    
    18    8   75 1    
    19    9   10 ar   
    20    9   14 ar   
    21   10   11 ar   
    22   10   76 1    
    23   11   12 ar   
    24   11   48 1    
    25   12   13 ar   
    26   12   77 1    
    27   13   14 ar   
    28   13   15 1    
    29   14   78 1    
    30   15   16 1    
    31   15   79 1    
    32   15   80 1    
    33   16   17 1    
    34   17   18 1    
    35   17   81 1    
    36   17   82 1    
    37   18   19 1    
    38   18   22 1    
    39   18   83 1    
    40   19   20 am   BACKBONE|DICT|INTERRES
    41   19   21 2    
    42   20   84 1    
    43   20   85 1    
    44   22   23 am   BACKBONE|DICT|INTERRES
    45   22   86 1    
    46   23   24 2    
    47   23   25 1    
    48   25   26 1    
    49   25   27 1    
    50   25   87 1    
    51   26   88 1    
    52   26   89 1    
    53   26   90 1    
    54   27   28 am   BACKBONE|DICT|INTERRES
    55   27   91 1    
    56   28   29 2    
    57   28   30 1    
    58   30   31 1    
    59   30   32 1    
    60   30   92 1    
    61   31   93 1    
    62   31   94 1    
    63   31   95 1    
    64   32   33 am   BACKBONE|DICT|INTERRES
    65   32   96 1    
    66   33   34 2    
    67   33   35 1    
    68   35   36 1    
    69   35   37 1    
    70   35   97 1    
    71   36   98 1    
    72   36   99 1    
    73   36  100 1    
    74   37   38 am   BACKBONE|DICT|INTERRES
    75   37  101 1    
    76   38   39 2    
    77   38   40 1    
    78   40   41 1    
    79   40   42 1    
    80   40  102 1    
    81   41  103 1    
    82   41  104 1    
    83   41  105 1    
    84   42   43 am   BACKBONE|DICT|INTERRES
    85   42  106 1    
    86   43   44 2    
    87   43   45 1    
    88   45   46 1    
    89   45   49 1    
    90   45  107 1    
    91   46   47 1    
    92   46  108 1    
    93   46  109 1    
    94   47   48 1    
    95   48  110 1    
    96   48  111 1    
    97   49   50 am   BACKBONE|DICT|INTERRES
    98   49  112 1    
    99   50   51 2    
   100   50   52 1    
   101   52   53 1    
   102   52   54 1    
   103   52  113 1    
   104   53  114 1    
   105   53  115 1    
   106   53  116 1    
   107   54   55 am   BACKBONE|DICT|INTERRES
   108   54  117 1    
   109   55   56 2    
   110   55   57 1    
   111   57   58 1    
   112   57   59 1    
   113   57  118 1    
   114   58  119 1    
   115   58  120 1    
   116   58  121 1    
   117   59   60 am   BACKBONE|DICT|INTERRES
   118   59  122 1    
   119   60   61 2    
   120   60   62 1    
   121   62   63 1    
   122   62   64 1    
   123   62  123 1    
   124   63  124 1    
   125   63  125 1    
   126   63  126 1    
   127   64   65 am   BACKBONE|DICT|INTERRES
   128   64  127 1    
   129   65   66 2    
@<TRIPOS>SUBSTRUCTURE
     1 UNK         1 GROUP             0       ****    0 ROOT    
