@<TRIPOS>MOLECULE
3R135
127   129    1
SMALL
USER_CHARGES


@<TRIPOS>ATOM
      1 CA        -82.5374   30.9873  -77.9458 C.3       0 UNK        -0.1998 
      2 C         -81.5455   29.8920  -77.5839 C.2       0 UNK         0.4909 
      3 O         -81.2758   29.0137  -78.4043 O.2       0 UNK        -0.5240 
      4 N         -80.9931   29.9422  -76.3658 N.am      1 UNK        -0.4739 
      5 CA        -80.0795   28.9344  -75.8201 C.3       1 UNK         0.0864 
      6 C6        -79.2182   29.5023  -74.6633 C.3       11 UNK        -0.0881 
      7 S7        -80.1774   30.2540  -73.2984 S.3       11 UNK        -0.2682 
      8 C8        -80.0105   29.0019  -71.9768 C.3       11 UNK         0.0289 
      9 C9        -78.5740   28.7259  -71.5305 C.ar      11 UNK        -0.0687 
     10 C10       -78.2305   27.4428  -71.0958 C.ar      11 UNK        -0.0823 
     11 C11       -76.9216   27.1473  -70.7008 C.ar      11 UNK        -0.0830 
     12 C12       -75.9553   28.1561  -70.7238 C.ar      11 UNK        -0.1021 
     13 C13       -76.2789   29.4514  -71.1447 C.ar      11 UNK        -0.0753 
     14 C14       -77.5927   29.7247  -71.5375 C.ar      11 UNK        -0.0933 
     15 C15       -75.2428   30.5723  -71.2415 C.3       11 UNK         0.0166 
     16 S16       -73.8918   30.5198  -70.0129 S.3       11 UNK        -0.2615 
     17 C17       -72.6564   29.4188  -70.7909 C.3       11 UNK        -0.0865 
     18 CA        -71.6067   30.1898  -71.6344 C.3       10 UNK         0.0862 
     19 C         -70.3236   29.3315  -71.8516 C.2       10 UNK         0.5551 
     20 N         -69.9458   28.9859  -73.0766 N.am      10 UNK        -0.7319 
     21 O         -69.6537   28.9781  -70.8844 O.2       10 UNK        -0.5018 
     22 N         -72.2184   30.6955  -72.8720 N.am      10 UNK        -0.4509 
     23 C         -71.7461   31.6690  -73.6545 C.2       10 UNK         0.4899 
     24 O         -70.7352   32.3251  -73.4000 O.2       10 UNK        -0.4839 
     25 CA        -72.5331   31.9138  -74.9591 C.3       9 UNK         0.0222 
     26 CB        -71.9448   33.0634  -75.7987 C.3       9 UNK        -0.1966 
     27 N         -72.6043   30.7036  -75.7880 N.am      9 UNK        -0.4218 
     28 C         -73.4132   29.6568  -75.5734 C.2       9 UNK         0.5020 
     29 O         -74.2133   29.5915  -74.6369 O.2       9 UNK        -0.5274 
     30 CA        -73.2341   28.4546  -76.5117 C.3       8 UNK         0.0270 
     31 CB        -72.1439   27.5145  -75.9711 C.3       8 UNK        -0.1976 
     32 N         -74.4747   27.6956  -76.6670 N.am      8 UNK        -0.4313 
     33 C         -75.5214   28.0904  -77.4068 C.2       8 UNK         0.5041 
     34 O         -75.5528   29.1607  -78.0180 O.2       8 UNK        -0.5577 
     35 CA        -76.7267   27.1250  -77.4946 C.3       7 UNK         0.0284 
     36 CB        -77.5860   27.3446  -78.7565 C.3       7 UNK        -0.1958 
     37 N         -76.3673   25.7079  -77.3616 N.am      7 UNK        -0.4454 
     38 C         -75.4496   25.0220  -78.0624 C.2       7 UNK         0.5089 
     39 O         -74.8731   25.4665  -79.0562 O.2       7 UNK        -0.5125 
     40 CA        -75.0850   23.6147  -77.5416 C.3       6 UNK         0.0408 
     41 CB        -73.5928   23.2876  -77.7568 C.3       6 UNK        -0.1791 
     42 N         -75.4606   23.3736  -76.1403 N.am      6 UNK        -0.4762 
     43 C         -75.0766   24.0539  -75.0432 C.2       6 UNK         0.5007 
     44 O         -74.2982   25.0085  -75.0803 O.2       6 UNK        -0.5032 
     45 CA        -75.7099   23.6449  -73.6927 C.3       5 UNK         0.0783 
     46 C46       -76.2547   24.8838  -72.9325 C.3       11 UNK        -0.0857 
     47 S47       -77.0926   24.4343  -71.3705 S.3       11 UNK        -0.2512 
     48 C48       -76.5394   25.7465  -70.2336 C.3       11 UNK         0.0225 
     49 N         -76.7645   22.6495  -73.9027 N.am      5 UNK        -0.4615 
     50 C         -76.6579   21.3341  -73.6838 C.2       4 UNK         0.5053 
     51 O         -75.6437   20.7899  -73.2477 O.2       4 UNK        -0.5105 
     52 CA        -77.8911   20.4741  -74.0233 C.3       4 UNK         0.0263 
     53 CB        -78.6859   20.1563  -72.7465 C.3       4 UNK        -0.1981 
     54 N         -78.7879   21.0988  -75.0029 N.am      4 UNK        -0.4224 
     55 C         -78.4720   21.3454  -76.2827 C.2       3 UNK         0.4895 
     56 O         -77.4018   21.0231  -76.7978 O.2       3 UNK        -0.5091 
     57 CA        -79.4939   22.1451  -77.1070 C.3       3 UNK         0.0250 
     58 CB        -80.5039   21.2007  -77.7780 C.3       3 UNK        -0.1996 
     59 N         -80.2117   23.1621  -76.3282 N.am      3 UNK        -0.4254 
     60 C         -79.6357   24.2251  -75.7507 C.2       2 UNK         0.5004 
     61 O         -78.4201   24.4426  -75.7566 O.2       2 UNK        -0.5226 
     62 CA        -80.5571   25.2029  -75.0203 C.3       2 UNK         0.0269 
     63 CB        -80.5479   24.9384  -73.5051 C.3       2 UNK        -0.1926 
     64 N         -80.0627   26.5474  -75.2910 N.am      2 UNK        -0.4687 
     65 C         -80.8212   27.6406  -75.4176 C.2       1 UNK         0.5165 
     66 O         -82.0397   27.6506  -75.2207 O.2       1 UNK        -0.5079 
     67 H67       -82.6692   31.7022  -77.1337 H         1 UNK         0.0900 
     68 H68       -83.5095   30.5516  -78.1749 H         1 UNK         0.0900 
     69 H69       -82.1918   31.5317  -78.8241 H         1 UNK         0.0900 
     70 H70       -81.2732   30.6622  -75.7144 H         1 UNK         0.2959 
     71 H71       -79.3962   28.6597  -76.6260 H         1 UNK         0.1079 
     72 H72       -78.5418   28.7395  -74.2739 H         1 UNK         0.0837 
     73 H73       -78.5632   30.2800  -75.0594 H         1 UNK         0.0837 
     74 H74       -80.5828   29.3347  -71.1102 H         1 UNK         0.0685 
     75 H75       -80.4809   28.0798  -72.3220 H         1 UNK         0.0685 
     76 H76       -78.9815   26.6648  -71.0741 H         1 UNK         0.1434 
     77 H77       -74.9515   27.9204  -70.4075 H         1 UNK         0.1329 
     78 H78       -77.8468   30.7227  -71.8661 H         1 UNK         0.1335 
     79 H79       -75.7438   31.5331  -71.1139 H         1 UNK         0.0680 
     80 H80       -74.8333   30.5837  -72.2496 H         1 UNK         0.0680 
     81 H81       -73.1440   28.6625  -71.4070 H         1 UNK         0.1032 
     82 H82       -72.1763   28.8745  -69.9750 H         1 UNK         0.1032 
     83 H83       -71.2793   31.0557  -71.0557 H         1 UNK         0.0461 
     84 H84       -70.4739   29.2916  -73.8759 H         1 UNK         0.3453 
     85 H85       -69.1109   28.4349  -73.1986 H         1 UNK         0.3453 
     86 H86       -73.0374   30.1965  -73.2066 H         1 UNK         0.2984 
     87 H87       -73.5476   32.2001  -74.6732 H         1 UNK         0.0554 
     88 H88       -72.5476   33.2560  -76.6864 H         1 UNK         0.0847 
     89 H89       -70.9261   32.8485  -76.1241 H         1 UNK         0.0847 
     90 H90       -71.9144   33.9905  -75.2245 H         1 UNK         0.0847 
     91 H91       -71.9517   30.6547  -76.5579 H         1 UNK         0.3141 
     92 H92       -72.9284   28.8159  -77.4961 H         1 UNK         0.0743 
     93 H93       -72.3881   27.1462  -74.9732 H         1 UNK         0.0784 
     94 H94       -72.0096   26.6488  -76.6204 H         1 UNK         0.0784 
     95 H95       -71.1808   28.0219  -75.9067 H         1 UNK         0.0784 
     96 H96       -74.5294   26.8144  -76.1667 H         1 UNK         0.3213 
     97 H97       -77.3436   27.3568  -76.6271 H         1 UNK         0.0855 
     98 H98       -77.9591   28.3682  -78.8086 H         1 UNK         0.0814 
     99 H99       -78.4545   26.6858  -78.7641 H         1 UNK         0.0814 
    100 H100      -77.0156   27.1593  -79.6671 H         1 UNK         0.0814 
    101 H101      -76.8428   25.2047  -76.6165 H         1 UNK         0.3105 
    102 H102      -75.6700   22.9119  -78.1363 H         1 UNK         0.0547 
    103 H103      -73.3313   23.3206  -78.8151 H         1 UNK         0.0837 
    104 H104      -72.9453   23.9971  -77.2405 H         1 UNK         0.0837 
    105 H105      -73.3499   22.2878  -77.3975 H         1 UNK         0.0837 
    106 H106      -76.1220   22.6171  -76.0096 H         1 UNK         0.3020 
    107 H107      -74.9056   23.2106  -73.0949 H         1 UNK         0.1245 
    108 H108      -76.9680   25.4354  -73.5480 H         1 UNK         0.0781 
    109 H109      -75.4418   25.5786  -72.7127 H         1 UNK         0.0781 
    110 H110      -75.4597   25.6586  -70.1024 H         1 UNK         0.0836 
    111 H111      -76.9832   25.5713  -69.2528 H         1 UNK         0.0836 
    112 H112      -77.6252   23.0151  -74.2888 H         1 UNK         0.3022 
    113 H113      -77.5291   19.5354  -74.4482 H         1 UNK         0.0747 
    114 H114      -79.5233   19.4899  -72.9540 H         1 UNK         0.0793 
    115 H115      -78.0547   19.6599  -72.0079 H         1 UNK         0.0793 
    116 H116      -79.0806   21.0607  -72.2811 H         1 UNK         0.0793 
    117 H117      -79.6917   21.3987  -74.6672 H         1 UNK         0.3047 
    118 H118      -78.9394   22.6642  -77.8923 H         1 UNK         0.0822 
    119 H119      -81.1736   21.7444  -78.4447 H         1 UNK         0.0807 
    120 H120      -81.1147   20.6721  -77.0451 H         1 UNK         0.0807 
    121 H121      -79.9932   20.4477  -78.3803 H         1 UNK         0.0807 
    122 H122      -81.2146   23.0559  -76.2674 H         1 UNK         0.2946 
    123 H123      -81.5731   25.0941  -75.4076 H         1 UNK         0.1144 
    124 H124      -80.8893   23.9274  -73.2794 H         1 UNK         0.0793 
    125 H125      -81.2085   25.6281  -72.9797 H         1 UNK         0.0793 
    126 H126      -79.5483   25.0487  -73.0839 H         1 UNK         0.0793 
    127 H127      -79.0716   26.5846  -75.4851 H         1 UNK         0.2896 
@<TRIPOS>BOND
     1    1    2 1    
     2    1   67 1    
     3    1   68 1    
     4    1   69 1    
     5    2    3 2    
     6    2    4 am   BACKBONE|DICT|INTERRES
     7    4    5 1    
     8    4   70 1    
     9    5    6 1    
    10    5   65 1    
    11    5   71 1    
    12    6    7 1    
    13    6   72 1    
    14    6   73 1    
    15    7    8 1    
    16    8    9 1    
    17    8   74 1    
    18    8   75 1    
    19    9   10 ar   
    20    9   14 ar   
    21   10   11 ar   
    22   10   76 1    
    23   11   12 ar   
    24   11   48 1    
    25   12   13 ar   
    26   12   77 1    
    27   13   14 ar   
    28   13   15 1    
    29   14   78 1    
    30   15   16 1    
    31   15   79 1    
    32   15   80 1    
    33   16   17 1    
    34   17   18 1    
    35   17   81 1    
    36   17   82 1    
    37   18   19 1    
    38   18   22 1    
    39   18   83 1    
    40   19   20 am   BACKBONE|DICT|INTERRES
    41   19   21 2    
    42   20   84 1    
    43   20   85 1    
    44   22   23 am   BACKBONE|DICT|INTERRES
    45   22   86 1    
    46   23   24 2    
    47   23   25 1    
    48   25   26 1    
    49   25   27 1    
    50   25   87 1    
    51   26   88 1    
    52   26   89 1    
    53   26   90 1    
    54   27   28 am   BACKBONE|DICT|INTERRES
    55   27   91 1    
    56   28   29 2    
    57   28   30 1    
    58   30   31 1    
    59   30   32 1    
    60   30   92 1    
    61   31   93 1    
    62   31   94 1    
    63   31   95 1    
    64   32   33 am   BACKBONE|DICT|INTERRES
    65   32   96 1    
    66   33   34 2    
    67   33   35 1    
    68   35   36 1    
    69   35   37 1    
    70   35   97 1    
    71   36   98 1    
    72   36   99 1    
    73   36  100 1    
    74   37   38 am   BACKBONE|DICT|INTERRES
    75   37  101 1    
    76   38   39 2    
    77   38   40 1    
    78   40   41 1    
    79   40   42 1    
    80   40  102 1    
    81   41  103 1    
    82   41  104 1    
    83   41  105 1    
    84   42   43 am   BACKBONE|DICT|INTERRES
    85   42  106 1    
    86   43   44 2    
    87   43   45 1    
    88   45   46 1    
    89   45   49 1    
    90   45  107 1    
    91   46   47 1    
    92   46  108 1    
    93   46  109 1    
    94   47   48 1    
    95   48  110 1    
    96   48  111 1    
    97   49   50 am   BACKBONE|DICT|INTERRES
    98   49  112 1    
    99   50   51 2    
   100   50   52 1    
   101   52   53 1    
   102   52   54 1    
   103   52  113 1    
   104   53  114 1    
   105   53  115 1    
   106   53  116 1    
   107   54   55 am   BACKBONE|DICT|INTERRES
   108   54  117 1    
   109   55   56 2    
   110   55   57 1    
   111   57   58 1    
   112   57   59 1    
   113   57  118 1    
   114   58  119 1    
   115   58  120 1    
   116   58  121 1    
   117   59   60 am   BACKBONE|DICT|INTERRES
   118   59  122 1    
   119   60   61 2    
   120   60   62 1    
   121   62   63 1    
   122   62   64 1    
   123   62  123 1    
   124   63  124 1    
   125   63  125 1    
   126   63  126 1    
   127   64   65 am   BACKBONE|DICT|INTERRES
   128   64  127 1    
   129   65   66 2    
@<TRIPOS>SUBSTRUCTURE
     1 UNK         1 GROUP             0       ****    0 ROOT    
