@<TRIPOS>MOLECULE
3R135
127   129    1
SMALL
USER_CHARGES


@<TRIPOS>ATOM
      1 CA        -80.6716   25.5477  -71.9172 C.3       0 UNK        -0.1998 
      2 C         -80.8108   26.2310  -73.2687 C.2       0 UNK         0.4909 
      3 O         -79.9611   26.0517  -74.1398 O.2       0 UNK        -0.5240 
      4 N         -81.8995   26.9921  -73.4436 N.am      1 UNK        -0.4739 
      5 CA        -82.2635   27.8050  -74.6210 C.3       1 UNK         0.0864 
      6 C6        -81.3265   29.0205  -74.8982 C.3       11 UNK        -0.0881 
      7 S7        -80.6620   29.8608  -73.4148 S.3       11 UNK        -0.2682 
      8 C8        -78.8780   29.6786  -73.7319 C.3       11 UNK         0.0289 
      9 C9        -78.0611   29.6472  -72.4536 C.ar      11 UNK        -0.0687 
     10 C10       -77.9398   28.4490  -71.7487 C.ar      11 UNK        -0.0823 
     11 C11       -77.1091   28.3612  -70.6301 C.ar      11 UNK        -0.0830 
     12 C12       -76.4193   29.4978  -70.1978 C.ar      11 UNK        -0.1021 
     13 C13       -76.5388   30.7069  -70.8912 C.ar      11 UNK        -0.0753 
     14 C14       -77.3695   30.7787  -72.0151 C.ar      11 UNK        -0.0933 
     15 C15       -75.7223   31.9208  -70.4675 C.3       11 UNK         0.0166 
     16 S16       -73.9231   31.6488  -70.6263 S.3       11 UNK        -0.2615 
     17 C17       -73.7649   31.0561  -72.3506 C.3       11 UNK        -0.0865 
     18 CA        -72.4958   30.2132  -72.6454 C.3       10 UNK         0.0862 
     19 C         -72.3129   28.9911  -71.7047 C.2       10 UNK         0.5551 
     20 N         -72.9159   27.8439  -71.9897 N.am      10 UNK        -0.7319 
     21 O         -71.5784   29.0708  -70.7229 O.2       10 UNK        -0.5018 
     22 N         -72.4713   29.8046  -74.0531 N.am      10 UNK        -0.4509 
     23 C         -72.0036   30.5425  -75.0648 C.2       10 UNK         0.4899 
     24 O         -71.5332   31.6726  -74.9242 O.2       10 UNK        -0.4839 
     25 CA        -72.1058   29.9283  -76.4744 C.3       9 UNK         0.0222 
     26 CB        -71.0458   30.4819  -77.4510 C.3       9 UNK        -0.1966 
     27 N         -72.1197   28.4598  -76.4788 N.am      9 UNK        -0.4218 
     28 C         -71.1301   27.6291  -76.1094 C.2       9 UNK         0.5020 
     29 O         -70.0340   28.0135  -75.6995 O.2       9 UNK        -0.5274 
     30 CA        -71.3946   26.1102  -76.1852 C.3       8 UNK         0.0270 
     31 CB        -71.4311   25.5019  -74.7725 C.3       8 UNK        -0.1976 
     32 N         -72.6302   25.7459  -76.8822 N.am      8 UNK        -0.4313 
     33 C         -72.8653   25.8945  -78.1924 C.2       8 UNK         0.5041 
     34 O         -72.0204   26.2746  -79.0033 O.2       8 UNK        -0.5577 
     35 CA        -74.3044   25.6243  -78.6668 C.3       7 UNK         0.0284 
     36 CB        -74.4739   24.1520  -79.0737 C.3       7 UNK        -0.1958 
     37 N         -75.3228   25.9878  -77.6718 N.am      7 UNK        -0.4454 
     38 C         -75.5433   27.2314  -77.2169 C.2       7 UNK         0.5089 
     39 O         -74.8946   28.2156  -77.5696 O.2       7 UNK        -0.5125 
     40 CA        -76.6564   27.3960  -76.1712 C.3       6 UNK         0.0408 
     41 CB        -78.0320   27.3397  -76.8557 C.3       6 UNK        -0.1791 
     42 N         -76.5740   26.3706  -75.1293 N.am      6 UNK        -0.4762 
     43 C         -75.6222   26.3287  -74.1810 C.2       6 UNK         0.5007 
     44 O         -74.7634   27.2031  -74.0413 O.2       6 UNK        -0.5032 
     45 CA        -75.5740   25.0631  -73.2887 C.3       5 UNK         0.0783 
     46 C46       -76.4418   25.2009  -72.0122 C.3       11 UNK        -0.0857 
     47 S47       -75.5915   26.0452  -70.6382 S.3       11 UNK        -0.2512 
     48 C48       -76.9342   27.0362  -69.9051 C.3       11 UNK         0.0225 
     49 N         -75.9475   23.8518  -74.0251 N.am      5 UNK        -0.4615 
     50 C         -75.3161   23.3639  -75.1000 C.2       4 UNK         0.5053 
     51 O         -74.2714   23.8356  -75.5442 O.2       4 UNK        -0.5105 
     52 CA        -75.9811   22.1828  -75.8337 C.3       4 UNK         0.0263 
     53 CB        -75.2642   20.8688  -75.4867 C.3       4 UNK        -0.1981 
     54 N         -77.4206   22.0336  -75.5777 N.am      4 UNK        -0.4224 
     55 C         -78.3590   22.9540  -75.8454 C.2       3 UNK         0.4895 
     56 O         -78.1102   24.0557  -76.3412 O.2       3 UNK        -0.5091 
     57 CA        -79.7944   22.5868  -75.4425 C.3       3 UNK         0.0250 
     58 CB        -79.9056   22.4056  -73.9168 C.3       3 UNK        -0.1996 
     59 N         -80.7236   23.6400  -75.8539 N.am      3 UNK        -0.4254 
     60 C         -81.8273   23.4543  -76.5914 C.2       2 UNK         0.5004 
     61 O         -82.1866   22.3525  -77.0108 O.2       2 UNK        -0.5226 
     62 CA        -82.6882   24.6960  -76.8908 C.3       2 UNK         0.0269 
     63 CB        -84.1631   24.3512  -77.1771 C.3       2 UNK        -0.1926 
     64 N         -82.6162   25.6521  -75.7853 N.am      2 UNK        -0.4687 
     65 C         -82.4947   26.9790  -75.9127 C.2       1 UNK         0.5165 
     66 O         -82.5508   27.5562  -77.0004 O.2       1 UNK        -0.5079 
     67 H67       -79.6296   25.3177  -71.7039 H         1 UNK         0.0900 
     68 H68       -81.0450   26.1831  -71.1142 H         1 UNK         0.0900 
     69 H69       -81.2326   24.6138  -71.9082 H         1 UNK         0.0900 
     70 H70       -82.5528   27.0669  -72.6759 H         1 UNK         0.2959 
     71 H71       -83.2438   28.2172  -74.3764 H         1 UNK         0.1079 
     72 H72       -80.4996   28.7197  -75.5398 H         1 UNK         0.0837 
     73 H73       -81.8685   29.7693  -75.4788 H         1 UNK         0.0837 
     74 H74       -78.6866   28.7479  -74.2659 H         1 UNK         0.0685 
     75 H75       -78.5433   30.4829  -74.3888 H         1 UNK         0.0685 
     76 H76       -78.4762   27.5803  -72.0975 H         1 UNK         0.1434 
     77 H77       -75.7592   29.4352  -69.3433 H         1 UNK         0.1329 
     78 H78       -77.4494   31.7033  -72.5703 H         1 UNK         0.1335 
     79 H79       -75.9537   32.1643  -69.4297 H         1 UNK         0.0680 
     80 H80       -75.9964   32.7970  -71.0572 H         1 UNK         0.0680 
     81 H81       -73.7864   31.9310  -73.0020 H         1 UNK         0.1032 
     82 H82       -74.6375   30.4637  -72.6242 H         1 UNK         0.1032 
     83 H83       -71.6295   30.8540  -72.4671 H         1 UNK         0.0461 
     84 H84       -72.7824   27.0683  -71.3622 H         1 UNK         0.3453 
     85 H85       -73.5883   27.7578  -72.7463 H         1 UNK         0.3453 
     86 H86       -72.8195   28.8756  -74.2462 H         1 UNK         0.2984 
     87 H87       -73.0823   30.2306  -76.8548 H         1 UNK         0.0554 
     88 H88       -71.1508   31.5607  -77.5723 H         1 UNK         0.0847 
     89 H89       -71.1466   30.0356  -78.4403 H         1 UNK         0.0847 
     90 H90       -70.0312   30.2940  -77.0990 H         1 UNK         0.0847 
     91 H91       -72.9900   28.0512  -76.8043 H         1 UNK         0.3141 
     92 H92       -70.5593   25.6653  -76.7297 H         1 UNK         0.0743 
     93 H93       -72.2605   25.8979  -74.1857 H         1 UNK         0.0784 
     94 H94       -71.5365   24.4174  -74.8100 H         1 UNK         0.0784 
     95 H95       -70.5124   25.7184  -74.2256 H         1 UNK         0.0784 
     96 H96       -73.3587   25.3139  -76.3179 H         1 UNK         0.3213 
     97 H97       -74.4791   26.2431  -79.5497 H         1 UNK         0.0855 
     98 H98       -74.2423   23.4753  -78.2513 H         1 UNK         0.0814 
     99 H99       -73.8017   23.8997  -79.8949 H         1 UNK         0.0814 
    100 H100      -75.4891   23.9426  -79.4111 H         1 UNK         0.0814 
    101 H101      -75.9006   25.2422  -77.3094 H         1 UNK         0.3105 
    102 H102      -76.5471   28.3734  -75.6964 H         1 UNK         0.0547 
    103 H103      -78.8396   27.3120  -76.1288 H         1 UNK         0.0837 
    104 H104      -78.1412   26.4586  -77.4887 H         1 UNK         0.0837 
    105 H105      -78.1872   28.2142  -77.4884 H         1 UNK         0.0837 
    106 H106      -77.2277   25.5985  -75.2101 H         1 UNK         0.3020 
    107 H107      -74.5318   24.9284  -72.9898 H         1 UNK         0.1245 
    108 H108      -76.7041   24.2139  -71.6274 H         1 UNK         0.0781 
    109 H109      -77.3916   25.6791  -72.2421 H         1 UNK         0.0781 
    110 H110      -76.6980   27.2198  -68.8558 H         1 UNK         0.0836 
    111 H111      -77.8659   26.4684  -69.9083 H         1 UNK         0.0836 
    112 H112      -76.7969   23.3936  -73.7330 H         1 UNK         0.3022 
    113 H113      -75.8631   22.3627  -76.9034 H         1 UNK         0.0747 
    114 H114      -75.6514   20.0366  -76.0751 H         1 UNK         0.0793 
    115 H115      -74.1957   20.9399  -75.6963 H         1 UNK         0.0793 
    116 H116      -75.3729   20.6155  -74.4313 H         1 UNK         0.0793 
    117 H117      -77.7108   21.1563  -75.1695 H         1 UNK         0.3047 
    118 H118      -80.0413   21.6432  -75.9335 H         1 UNK         0.0822 
    119 H119      -80.9384   22.2330  -73.6132 H         1 UNK         0.0807 
    120 H120      -79.5425   23.2827  -73.3809 H         1 UNK         0.0807 
    121 H121      -79.3262   21.5489  -73.5716 H         1 UNK         0.0807 
    122 H122      -80.4482   24.5817  -75.5906 H         1 UNK         0.2946 
    123 H123      -82.2595   25.1418  -77.7915 H         1 UNK         0.1144 
    124 H124      -84.6329   23.8604  -76.3241 H         1 UNK         0.0793 
    125 H125      -84.2526   23.6806  -78.0328 H         1 UNK         0.0793 
    126 H126      -84.7407   25.2459  -77.4096 H         1 UNK         0.0793 
    127 H127      -82.5484   25.2579  -74.8572 H         1 UNK         0.2896 
@<TRIPOS>BOND
     1    1    2 1    
     2    1   67 1    
     3    1   68 1    
     4    1   69 1    
     5    2    3 2    
     6    2    4 am   BACKBONE|DICT|INTERRES
     7    4    5 1    
     8    4   70 1    
     9    5    6 1    
    10    5   65 1    
    11    5   71 1    
    12    6    7 1    
    13    6   72 1    
    14    6   73 1    
    15    7    8 1    
    16    8    9 1    
    17    8   74 1    
    18    8   75 1    
    19    9   10 ar   
    20    9   14 ar   
    21   10   11 ar   
    22   10   76 1    
    23   11   12 ar   
    24   11   48 1    
    25   12   13 ar   
    26   12   77 1    
    27   13   14 ar   
    28   13   15 1    
    29   14   78 1    
    30   15   16 1    
    31   15   79 1    
    32   15   80 1    
    33   16   17 1    
    34   17   18 1    
    35   17   81 1    
    36   17   82 1    
    37   18   19 1    
    38   18   22 1    
    39   18   83 1    
    40   19   20 am   BACKBONE|DICT|INTERRES
    41   19   21 2    
    42   20   84 1    
    43   20   85 1    
    44   22   23 am   BACKBONE|DICT|INTERRES
    45   22   86 1    
    46   23   24 2    
    47   23   25 1    
    48   25   26 1    
    49   25   27 1    
    50   25   87 1    
    51   26   88 1    
    52   26   89 1    
    53   26   90 1    
    54   27   28 am   BACKBONE|DICT|INTERRES
    55   27   91 1    
    56   28   29 2    
    57   28   30 1    
    58   30   31 1    
    59   30   32 1    
    60   30   92 1    
    61   31   93 1    
    62   31   94 1    
    63   31   95 1    
    64   32   33 am   BACKBONE|DICT|INTERRES
    65   32   96 1    
    66   33   34 2    
    67   33   35 1    
    68   35   36 1    
    69   35   37 1    
    70   35   97 1    
    71   36   98 1    
    72   36   99 1    
    73   36  100 1    
    74   37   38 am   BACKBONE|DICT|INTERRES
    75   37  101 1    
    76   38   39 2    
    77   38   40 1    
    78   40   41 1    
    79   40   42 1    
    80   40  102 1    
    81   41  103 1    
    82   41  104 1    
    83   41  105 1    
    84   42   43 am   BACKBONE|DICT|INTERRES
    85   42  106 1    
    86   43   44 2    
    87   43   45 1    
    88   45   46 1    
    89   45   49 1    
    90   45  107 1    
    91   46   47 1    
    92   46  108 1    
    93   46  109 1    
    94   47   48 1    
    95   48  110 1    
    96   48  111 1    
    97   49   50 am   BACKBONE|DICT|INTERRES
    98   49  112 1    
    99   50   51 2    
   100   50   52 1    
   101   52   53 1    
   102   52   54 1    
   103   52  113 1    
   104   53  114 1    
   105   53  115 1    
   106   53  116 1    
   107   54   55 am   BACKBONE|DICT|INTERRES
   108   54  117 1    
   109   55   56 2    
   110   55   57 1    
   111   57   58 1    
   112   57   59 1    
   113   57  118 1    
   114   58  119 1    
   115   58  120 1    
   116   58  121 1    
   117   59   60 am   BACKBONE|DICT|INTERRES
   118   59  122 1    
   119   60   61 2    
   120   60   62 1    
   121   62   63 1    
   122   62   64 1    
   123   62  123 1    
   124   63  124 1    
   125   63  125 1    
   126   63  126 1    
   127   64   65 am   BACKBONE|DICT|INTERRES
   128   64  127 1    
   129   65   66 2    
@<TRIPOS>SUBSTRUCTURE
     1 UNK         1 GROUP             0       ****    0 ROOT    
