@<TRIPOS>MOLECULE
3R135
127   129    1
SMALL
USER_CHARGES


@<TRIPOS>ATOM
      1 CA        -82.8659   27.7663  -76.5415 C.3       0 UNK        -0.1998 
      2 C         -81.6337   28.1118  -75.7198 C.2       0 UNK         0.4909 
      3 O         -80.6820   28.6796  -76.2560 O.2       0 UNK        -0.5240 
      4 N         -81.6438   27.7601  -74.4265 N.am      1 UNK        -0.4739 
      5 CA        -80.5604   27.9651  -73.4546 C.3       1 UNK         0.0864 
      6 C6        -81.0012   27.5040  -72.0336 C.3       11 UNK        -0.0881 
      7 S7        -80.7402   28.7934  -70.7728 S.3       11 UNK        -0.2682 
      8 C8        -79.5584   27.9880  -69.6463 C.3       11 UNK         0.0289 
      9 C9        -78.1802   27.8511  -70.2738 C.ar      11 UNK        -0.0687 
     10 C10       -77.6649   26.5910  -70.5945 C.ar      11 UNK        -0.0823 
     11 C11       -76.3921   26.4714  -71.1601 C.ar      11 UNK        -0.0830 
     12 C12       -75.6456   27.6233  -71.4265 C.ar      11 UNK        -0.1021 
     13 C13       -76.1446   28.8873  -71.0967 C.ar      11 UNK        -0.0753 
     14 C14       -77.4097   28.9923  -70.5136 C.ar      11 UNK        -0.0933 
     15 C15       -75.3130   30.1379  -71.3415 C.3       11 UNK         0.0166 
     16 S16       -76.0382   31.1753  -72.6462 S.3       11 UNK        -0.2615 
     17 C17       -74.7526   32.4541  -72.8526 C.3       11 UNK        -0.0865 
     18 CA        -73.9302   32.2551  -74.1600 C.3       10 UNK         0.0862 
     19 C         -73.1180   33.5226  -74.5746 C.2       10 UNK         0.5551 
     20 N         -71.9934   33.3845  -75.2672 N.am      10 UNK        -0.7319 
     21 O         -73.5248   34.6487  -74.2978 O.2       10 UNK        -0.5018 
     22 N         -73.1543   30.9998  -74.1649 N.am      10 UNK        -0.4509 
     23 C         -72.0961   30.7129  -73.3912 C.2       10 UNK         0.4899 
     24 O         -71.6588   31.4676  -72.5223 O.2       10 UNK        -0.4839 
     25 CA        -71.3955   29.3587  -73.6154 C.3       9 UNK         0.0222 
     26 CB        -71.5199   28.4579  -72.3759 C.3       9 UNK        -0.1966 
     27 N         -71.8939   28.6301  -74.7848 N.am      9 UNK        -0.4218 
     28 C         -71.5333   28.8514  -76.0536 C.2       9 UNK         0.5020 
     29 O         -70.7122   29.7103  -76.3807 O.2       9 UNK        -0.5274 
     30 CA        -72.2163   27.9798  -77.1322 C.3       8 UNK         0.0270 
     31 CB        -71.5846   28.1638  -78.5255 C.3       8 UNK        -0.1976 
     32 N         -72.2512   26.5451  -76.8159 N.am      8 UNK        -0.4313 
     33 C         -73.0187   25.9595  -75.8877 C.2       8 UNK         0.5041 
     34 O         -73.7503   26.5824  -75.1163 O.2       8 UNK        -0.5577 
     35 CA        -72.9584   24.4337  -75.7998 C.3       7 UNK         0.0284 
     36 CB        -72.6104   23.9590  -74.3775 C.3       7 UNK        -0.1958 
     37 N         -74.2617   23.9158  -76.2010 N.am      7 UNK        -0.4454 
     38 C         -74.4659   22.7631  -76.8478 C.2       7 UNK         0.5089 
     39 O         -73.5670   21.9691  -77.1335 O.2       7 UNK        -0.5125 
     40 CA        -75.9230   22.4613  -77.2447 C.3       6 UNK         0.0408 
     41 CB        -76.1060   21.0904  -77.9300 C.3       6 UNK        -0.1791 
     42 N         -76.8424   22.6235  -76.1156 N.am      6 UNK        -0.4762 
     43 C         -76.9034   21.9014  -74.9845 C.2       6 UNK         0.5007 
     44 O         -76.2013   20.9160  -74.7539 O.2       6 UNK        -0.5032 
     45 CA        -77.9340   22.3556  -73.9240 C.3       5 UNK         0.0783 
     46 C46       -77.2655   23.0314  -72.6997 C.3       11 UNK        -0.0857 
     47 S47       -76.2835   24.5129  -73.1042 S.3       11 UNK        -0.2512 
     48 C48       -75.8055   25.0995  -71.4545 C.3       11 UNK         0.0225 
     49 N         -79.0012   23.1841  -74.4990 N.am      5 UNK        -0.4615 
     50 C         -80.0139   22.6935  -75.2289 C.2       4 UNK         0.5053 
     51 O         -80.1949   21.4918  -75.4265 O.2       4 UNK        -0.5105 
     52 CA        -80.9678   23.7090  -75.8715 C.3       4 UNK         0.0263 
     53 CB        -81.9925   24.2297  -74.8501 C.3       4 UNK        -0.1981 
     54 N         -80.2277   24.8248  -76.4635 N.am      4 UNK        -0.4224 
     55 C         -79.6869   24.8020  -77.6913 C.2       3 UNK         0.4895 
     56 O         -79.8004   23.8528  -78.4669 O.2       3 UNK        -0.5091 
     57 CA        -78.8878   26.0353  -78.1490 C.3       3 UNK         0.0250 
     58 CB        -79.7160   26.8880  -79.1237 C.3       3 UNK        -0.1996 
     59 N         -78.4364   26.8733  -77.0368 N.am      3 UNK        -0.4254 
     60 C         -77.3618   26.6010  -76.2830 C.2       2 UNK         0.5004 
     61 O         -76.6251   25.6338  -76.4751 O.2       2 UNK        -0.5226 
     62 CA        -77.0853   27.5485  -75.1008 C.3       2 UNK         0.0269 
     63 CB        -76.2484   28.7461  -75.5768 C.3       2 UNK        -0.1926 
     64 N         -78.2970   28.0343  -74.4262 N.am      2 UNK        -0.4687 
     65 C         -79.2725   27.2582  -73.9294 C.2       1 UNK         0.5165 
     66 O         -79.2365   26.0259  -73.9348 O.2       1 UNK        -0.5079 
     67 H67       -83.7030   27.4647  -75.9121 H         1 UNK         0.0900 
     68 H68       -83.1800   28.6288  -77.1286 H         1 UNK         0.0900 
     69 H69       -82.6436   26.9489  -77.2267 H         1 UNK         0.0900 
     70 H70       -82.4601   27.2910  -74.0620 H         1 UNK         0.2959 
     71 H71       -80.3667   29.0399  -73.4401 H         1 UNK         0.1079 
     72 H72       -80.5168   26.5756  -71.7241 H         1 UNK         0.0837 
     73 H73       -82.0677   27.2744  -72.0110 H         1 UNK         0.0837 
     74 H74       -79.9510   27.0175  -69.3387 H         1 UNK         0.0685 
     75 H75       -79.4768   28.5860  -68.7375 H         1 UNK         0.0685 
     76 H76       -78.2488   25.7019  -70.3998 H         1 UNK         0.1434 
     77 H77       -74.6705   27.5282  -71.8802 H         1 UNK         0.1329 
     78 H78       -77.8014   29.9674  -70.2576 H         1 UNK         0.1335 
     79 H79       -75.2431   30.7147  -70.4181 H         1 UNK         0.0680 
     80 H80       -74.2937   29.8694  -71.6177 H         1 UNK         0.0680 
     81 H81       -74.0998   32.4863  -71.9792 H         1 UNK         0.1032 
     82 H82       -75.2732   33.4131  -72.8677 H         1 UNK         0.1032 
     83 H83       -74.6519   32.1404  -74.9698 H         1 UNK         0.0461 
     84 H84       -71.4783   34.2057  -75.5426 H         1 UNK         0.3453 
     85 H85       -71.6522   32.4676  -75.5105 H         1 UNK         0.3453 
     86 H86       -73.4364   30.3153  -74.8493 H         1 UNK         0.2984 
     87 H87       -70.3350   29.5713  -73.7660 H         1 UNK         0.0554 
     88 H88       -71.1419   28.9596  -71.4840 H         1 UNK         0.0847 
     89 H89       -70.9463   27.5387  -72.4958 H         1 UNK         0.0847 
     90 H90       -72.5542   28.1816  -72.1812 H         1 UNK         0.0847 
     91 H91       -72.6000   27.9099  -74.6290 H         1 UNK         0.3141 
     92 H92       -73.2483   28.3285  -77.1984 H         1 UNK         0.0743 
     93 H93       -70.5409   27.8471  -78.5397 H         1 UNK         0.0784 
     94 H94       -72.1205   27.5929  -79.2841 H         1 UNK         0.0784 
     95 H95       -71.6127   29.2094  -78.8354 H         1 UNK         0.0784 
     96 H96       -71.6538   25.9575  -77.3801 H         1 UNK         0.3213 
     97 H97       -72.1903   24.0703  -76.4860 H         1 UNK         0.0855 
     98 H98       -73.3431   24.3021  -73.6469 H         1 UNK         0.0814 
     99 H99       -71.6372   24.3406  -74.0668 H         1 UNK         0.0814 
    100 H100      -72.5683   22.8713  -74.3217 H         1 UNK         0.0814 
    101 H101      -75.0518   24.5425  -76.0495 H         1 UNK         0.3105 
    102 H102      -76.2042   23.2253  -77.9712 H         1 UNK         0.0547 
    103 H103      -77.1466   20.9220  -78.2070 H         1 UNK         0.0837 
    104 H104      -75.7905   20.2667  -77.2894 H         1 UNK         0.0837 
    105 H105      -75.5138   21.0322  -78.8439 H         1 UNK         0.0837 
    106 H106      -77.4121   23.4587  -76.1507 H         1 UNK         0.3020 
    107 H107      -78.3999   21.4384  -73.5555 H         1 UNK         0.1245 
    108 H108      -76.6128   22.3186  -72.1922 H         1 UNK         0.0781 
    109 H109      -78.0296   23.3098  -71.9722 H         1 UNK         0.0781 
    110 H110      -74.7165   25.1385  -71.4021 H         1 UNK         0.0836 
    111 H111      -76.1164   24.3877  -70.6884 H         1 UNK         0.0836 
    112 H112      -78.9398   24.1863  -74.3316 H         1 UNK         0.3022 
    113 H113      -81.5226   23.1938  -76.6589 H         1 UNK         0.0747 
    114 H114      -82.6974   24.9192  -75.3136 H         1 UNK         0.0793 
    115 H115      -82.5747   23.4064  -74.4343 H         1 UNK         0.0793 
    116 H116      -81.5177   24.7419  -74.0134 H         1 UNK         0.0793 
    117 H117      -80.0117   25.5992  -75.8483 H         1 UNK         0.3047 
    118 H118      -78.0106   25.6697  -78.6878 H         1 UNK         0.0822 
    119 H119      -79.1360   27.7284  -79.5053 H         1 UNK         0.0807 
    120 H120      -80.6138   27.2881  -78.6533 H         1 UNK         0.0807 
    121 H121      -80.0347   26.2985  -79.9845 H         1 UNK         0.0807 
    122 H122      -79.0195   27.6695  -76.7933 H         1 UNK         0.2946 
    123 H123      -76.4933   26.9962  -74.3710 H         1 UNK         0.1144 
    124 H124      -75.8159   29.2779  -74.7324 H         1 UNK         0.0793 
    125 H125      -76.8382   29.4512  -76.1632 H         1 UNK         0.0793 
    126 H126      -75.4170   28.4185  -76.2008 H         1 UNK         0.0793 
    127 H127      -78.4239   29.0358  -74.4112 H         1 UNK         0.2896 
@<TRIPOS>BOND
     1    1    2 1    
     2    1   67 1    
     3    1   68 1    
     4    1   69 1    
     5    2    3 2    
     6    2    4 am   BACKBONE|DICT|INTERRES
     7    4    5 1    
     8    4   70 1    
     9    5    6 1    
    10    5   65 1    
    11    5   71 1    
    12    6    7 1    
    13    6   72 1    
    14    6   73 1    
    15    7    8 1    
    16    8    9 1    
    17    8   74 1    
    18    8   75 1    
    19    9   10 ar   
    20    9   14 ar   
    21   10   11 ar   
    22   10   76 1    
    23   11   12 ar   
    24   11   48 1    
    25   12   13 ar   
    26   12   77 1    
    27   13   14 ar   
    28   13   15 1    
    29   14   78 1    
    30   15   16 1    
    31   15   79 1    
    32   15   80 1    
    33   16   17 1    
    34   17   18 1    
    35   17   81 1    
    36   17   82 1    
    37   18   19 1    
    38   18   22 1    
    39   18   83 1    
    40   19   20 am   BACKBONE|DICT|INTERRES
    41   19   21 2    
    42   20   84 1    
    43   20   85 1    
    44   22   23 am   BACKBONE|DICT|INTERRES
    45   22   86 1    
    46   23   24 2    
    47   23   25 1    
    48   25   26 1    
    49   25   27 1    
    50   25   87 1    
    51   26   88 1    
    52   26   89 1    
    53   26   90 1    
    54   27   28 am   BACKBONE|DICT|INTERRES
    55   27   91 1    
    56   28   29 2    
    57   28   30 1    
    58   30   31 1    
    59   30   32 1    
    60   30   92 1    
    61   31   93 1    
    62   31   94 1    
    63   31   95 1    
    64   32   33 am   BACKBONE|DICT|INTERRES
    65   32   96 1    
    66   33   34 2    
    67   33   35 1    
    68   35   36 1    
    69   35   37 1    
    70   35   97 1    
    71   36   98 1    
    72   36   99 1    
    73   36  100 1    
    74   37   38 am   BACKBONE|DICT|INTERRES
    75   37  101 1    
    76   38   39 2    
    77   38   40 1    
    78   40   41 1    
    79   40   42 1    
    80   40  102 1    
    81   41  103 1    
    82   41  104 1    
    83   41  105 1    
    84   42   43 am   BACKBONE|DICT|INTERRES
    85   42  106 1    
    86   43   44 2    
    87   43   45 1    
    88   45   46 1    
    89   45   49 1    
    90   45  107 1    
    91   46   47 1    
    92   46  108 1    
    93   46  109 1    
    94   47   48 1    
    95   48  110 1    
    96   48  111 1    
    97   49   50 am   BACKBONE|DICT|INTERRES
    98   49  112 1    
    99   50   51 2    
   100   50   52 1    
   101   52   53 1    
   102   52   54 1    
   103   52  113 1    
   104   53  114 1    
   105   53  115 1    
   106   53  116 1    
   107   54   55 am   BACKBONE|DICT|INTERRES
   108   54  117 1    
   109   55   56 2    
   110   55   57 1    
   111   57   58 1    
   112   57   59 1    
   113   57  118 1    
   114   58  119 1    
   115   58  120 1    
   116   58  121 1    
   117   59   60 am   BACKBONE|DICT|INTERRES
   118   59  122 1    
   119   60   61 2    
   120   60   62 1    
   121   62   63 1    
   122   62   64 1    
   123   62  123 1    
   124   63  124 1    
   125   63  125 1    
   126   63  126 1    
   127   64   65 am   BACKBONE|DICT|INTERRES
   128   64  127 1    
   129   65   66 2    
@<TRIPOS>SUBSTRUCTURE
     1 UNK         1 GROUP             0       ****    0 ROOT    
