@<TRIPOS>MOLECULE
3R135
127   129    1
SMALL
USER_CHARGES


@<TRIPOS>ATOM
      1 CA        -84.0407   25.5663  -74.7370 C.3       0 UNK        -0.1998 
      2 C         -82.9622   26.6317  -74.8583 C.2       0 UNK         0.4909 
      3 O         -82.5350   26.9485  -75.9688 O.2       0 UNK        -0.5240 
      4 N         -82.5172   27.1915  -73.7264 N.am      1 UNK        -0.4739 
      5 CA        -81.4366   28.1806  -73.6570 C.3       1 UNK         0.0864 
      6 C6        -81.3994   28.9037  -72.2869 C.3       11 UNK        -0.0881 
      7 S7        -81.2340   27.7920  -70.8439 S.3       11 UNK        -0.2682 
      8 C8        -79.8770   28.5763  -69.9172 C.3       11 UNK         0.0289 
      9 C9        -78.5184   28.3570  -70.5689 C.ar      11 UNK        -0.0687 
     10 C10       -77.8548   27.1370  -70.4105 C.ar      11 UNK        -0.0823 
     11 C11       -76.5821   26.9407  -70.9565 C.ar      11 UNK        -0.0830 
     12 C12       -75.9756   27.9746  -71.6762 C.ar      11 UNK        -0.1021 
     13 C13       -76.6251   29.2036  -71.8301 C.ar      11 UNK        -0.0753 
     14 C14       -77.8978   29.3874  -71.2814 C.ar      11 UNK        -0.0933 
     15 C15       -75.9353   30.3479  -72.5525 C.3       11 UNK         0.0166 
     16 S16       -74.9522   31.3327  -71.3826 S.3       11 UNK        -0.2615 
     17 C17       -74.3269   32.6787  -72.4495 C.3       11 UNK        -0.0865 
     18 CA        -73.4292   32.2177  -73.6315 C.3       10 UNK         0.0862 
     19 C         -72.8314   33.4456  -74.3795 C.2       10 UNK         0.5551 
     20 N         -71.5172   33.6288  -74.4148 N.am      10 UNK        -0.7319 
     21 O         -73.5782   34.2460  -74.9373 O.2       10 UNK        -0.5018 
     22 N         -72.4572   31.1928  -73.2151 N.am      10 UNK        -0.4509 
     23 C         -71.8237   30.3528  -74.0412 C.2       10 UNK         0.4899 
     24 O         -71.8972   30.4222  -75.2697 O.2       10 UNK        -0.4839 
     25 CA        -70.9459   29.2601  -73.3917 C.3       9 UNK         0.0222 
     26 CB        -71.3129   28.9528  -71.9199 C.3       9 UNK        -0.1966 
     27 N         -70.9252   28.0269  -74.1898 N.am      9 UNK        -0.4218 
     28 C         -71.9753   27.2526  -74.5008 C.2       9 UNK         0.5020 
     29 O         -73.1217   27.4235  -74.0761 O.2       9 UNK        -0.5274 
     30 CA        -71.6816   26.0568  -75.4217 C.3       8 UNK         0.0270 
     31 CB        -71.4515   24.7841  -74.5915 C.3       8 UNK        -0.1976 
     32 N         -72.7922   25.8460  -76.3520 N.am      8 UNK        -0.4313 
     33 C         -73.0300   26.6271  -77.4167 C.2       8 UNK         0.5041 
     34 O         -72.2444   27.4952  -77.8027 O.2       8 UNK        -0.5577 
     35 CA        -74.3678   26.4429  -78.1614 C.3       7 UNK         0.0284 
     36 CB        -74.2779   26.7877  -79.6637 C.3       7 UNK        -0.1958 
     37 N         -74.9955   25.1358  -77.9469 N.am      7 UNK        -0.4454 
     38 C         -74.5596   23.9365  -78.3582 C.2       7 UNK         0.5089 
     39 O         -73.5474   23.7690  -79.0404 O.2       7 UNK        -0.5125 
     40 CA        -75.4009   22.7194  -77.9184 C.3       6 UNK         0.0408 
     41 CB        -74.6117   21.3952  -77.9881 C.3       6 UNK        -0.1791 
     42 N         -76.0232   22.8766  -76.5963 N.am      6 UNK        -0.4762 
     43 C         -75.4004   23.1038  -75.4262 C.2       6 UNK         0.5007 
     44 O         -74.1806   23.2370  -75.3343 O.2       6 UNK        -0.5032 
     45 CA        -76.2701   23.2170  -74.1540 C.3       5 UNK         0.0783 
     46 C46       -75.7646   24.3294  -73.1996 C.3       11 UNK        -0.0857 
     47 S47       -76.6030   24.2355  -71.5852 S.3       11 UNK        -0.2512 
     48 C48       -75.8435   25.6339  -70.7061 C.3       11 UNK         0.0225 
     49 N         -77.6777   23.4202  -74.5017 N.am      5 UNK        -0.4615 
     50 C         -78.6286   22.4795  -74.5243 C.2       4 UNK         0.5053 
     51 O         -78.4438   21.3084  -74.1938 O.2       4 UNK        -0.5105 
     52 CA        -80.0148   22.9101  -75.0396 C.3       4 UNK         0.0263 
     53 CB        -80.9757   23.1572  -73.8657 C.3       4 UNK        -0.1981 
     54 N         -79.9535   24.1031  -75.8936 N.am      4 UNK        -0.4224 
     55 C         -79.4431   24.1063  -77.1360 C.2       3 UNK         0.4895 
     56 O         -79.0450   23.0915  -77.7079 O.2       3 UNK        -0.5091 
     57 CA        -79.2869   25.4645  -77.8431 C.3       3 UNK         0.0250 
     58 CB        -80.5142   25.7661  -78.7163 C.3       3 UNK        -0.1996 
     59 N         -79.0471   26.5792  -76.9222 N.am      3 UNK        -0.4254 
     60 C         -77.9539   26.7081  -76.1551 C.2       2 UNK         0.5004 
     61 O         -77.0223   25.9060  -76.1656 O.2       2 UNK        -0.5226 
     62 CA        -77.9022   27.8999  -75.1833 C.3       2 UNK         0.0269 
     63 CB        -77.1735   29.0829  -75.8399 C.3       2 UNK        -0.1926 
     64 N         -79.2205   28.3364  -74.7070 N.am      2 UNK        -0.4687 
     65 C         -80.0790   27.5527  -74.0376 C.2       1 UNK         0.5165 
     66 O         -79.8449   26.3740  -73.7593 O.2       1 UNK        -0.5079 
     67 H67       -84.9942   25.9582  -75.0882 H         1 UNK         0.0900 
     68 H68       -83.7849   24.7003  -75.3462 H         1 UNK         0.0900 
     69 H69       -84.1660   25.2312  -73.7080 H         1 UNK         0.0900 
     70 H70       -82.8643   26.8718  -72.8332 H         1 UNK         0.2959 
     71 H71       -81.6600   28.9381  -74.4121 H         1 UNK         0.1079 
     72 H72       -80.6046   29.6506  -72.2784 H         1 UNK         0.0837 
     73 H73       -82.3228   29.4699  -72.1560 H         1 UNK         0.0837 
     74 H74       -79.8602   28.1605  -68.9087 H         1 UNK         0.0685 
     75 H75       -80.0846   29.6411  -69.7992 H         1 UNK         0.0685 
     76 H76       -78.3243   26.3418  -69.8475 H         1 UNK         0.1434 
     77 H77       -74.9857   27.8368  -72.0912 H         1 UNK         0.1329 
     78 H78       -78.3916   30.3434  -71.3870 H         1 UNK         0.1335 
     79 H79       -76.6716   30.9896  -73.0385 H         1 UNK         0.0680 
     80 H80       -75.2887   29.9521  -73.3374 H         1 UNK         0.0680 
     81 H81       -73.7738   33.3658  -71.8060 H         1 UNK         0.1032 
     82 H82       -75.1815   33.2459  -72.8236 H         1 UNK         0.1032 
     83 H83       -74.0854   31.7377  -74.3599 H         1 UNK         0.0461 
     84 H84       -70.9007   32.9715  -73.9650 H         1 UNK         0.3453 
     85 H85       -71.1400   34.4255  -74.9035 H         1 UNK         0.3453 
     86 H86       -72.3469   31.0736  -72.2190 H         1 UNK         0.2984 
     87 H87       -69.9250   29.6441  -73.4043 H         1 UNK         0.0554 
     88 H88       -71.1193   29.8084  -71.2722 H         1 UNK         0.0847 
     89 H89       -70.7191   28.1254  -71.5311 H         1 UNK         0.0847 
     90 H90       -72.3645   28.6839  -71.8084 H         1 UNK         0.0847 
     91 H91       -70.0348   27.8047  -74.6132 H         1 UNK         0.3141 
     92 H92       -70.7779   26.2582  -76.0011 H         1 UNK         0.0743 
     93 H93       -70.5723   24.8877  -73.9546 H         1 UNK         0.0784 
     94 H94       -71.2912   23.9150  -75.2300 H         1 UNK         0.0784 
     95 H95       -72.2996   24.5694  -73.9402 H         1 UNK         0.0784 
     96 H96       -73.4751   25.1451  -76.0884 H         1 UNK         0.3213 
     97 H97       -75.0474   27.1662  -77.7092 H         1 UNK         0.0855 
     98 H98       -73.5461   26.1663  -80.1803 H         1 UNK         0.0814 
     99 H99       -73.9777   27.8262  -79.8085 H         1 UNK         0.0814 
    100 H100      -75.2400   26.6591  -80.1593 H         1 UNK         0.0814 
    101 H101      -75.8149   25.1634  -77.3409 H         1 UNK         0.3105 
    102 H102      -76.2238   22.6505  -78.6313 H         1 UNK         0.0547 
    103 H103      -75.2306   20.5479  -77.6933 H         1 UNK         0.0837 
    104 H104      -73.7350   21.4128  -77.3399 H         1 UNK         0.0837 
    105 H105      -74.2615   21.2000  -79.0023 H         1 UNK         0.0837 
    106 H106      -77.0338   22.8171  -76.5871 H         1 UNK         0.3020 
    107 H107      -76.1553   22.2598  -73.6402 H         1 UNK         0.1245 
    108 H108      -75.9195   25.3197  -73.6329 H         1 UNK         0.0781 
    109 H109      -74.6927   24.2349  -73.0163 H         1 UNK         0.0781 
    110 H110      -74.7905   25.7174  -70.9805 H         1 UNK         0.0836 
    111 H111      -75.8597   25.4213  -69.6362 H         1 UNK         0.0836 
    112 H112      -77.9124   24.3552  -74.8083 H         1 UNK         0.3022 
    113 H113      -80.4140   22.0857  -75.6346 H         1 UNK         0.0747 
    114 H114      -81.9704   23.4294  -74.2157 H         1 UNK         0.0793 
    115 H115      -81.0829   22.2582  -73.2573 H         1 UNK         0.0793 
    116 H116      -80.6193   23.9500  -73.2076 H         1 UNK         0.0793 
    117 H117      -80.2049   24.9844  -75.4610 H         1 UNK         0.3047 
    118 H118      -78.4166   25.3890  -78.4991 H         1 UNK         0.0822 
    119 H119      -80.3884   26.6949  -79.2731 H         1 UNK         0.0807 
    120 H120      -81.4239   25.8506  -78.1216 H         1 UNK         0.0807 
    121 H121      -80.6768   24.9718  -79.4462 H         1 UNK         0.0807 
    122 H122      -79.7826   27.2665  -76.8348 H         1 UNK         0.2946 
    123 H123      -77.3295   27.5791  -74.3098 H         1 UNK         0.1144 
    124 H124      -77.1235   29.9434  -75.1747 H         1 UNK         0.0793 
    125 H125      -77.6665   29.4019  -76.7592 H         1 UNK         0.0793 
    126 H126      -76.1475   28.8130  -76.0946 H         1 UNK         0.0793 
    127 H127      -79.4800   29.2912  -74.9097 H         1 UNK         0.2896 
@<TRIPOS>BOND
     1    1    2 1    
     2    1   67 1    
     3    1   68 1    
     4    1   69 1    
     5    2    3 2    
     6    2    4 am   BACKBONE|DICT|INTERRES
     7    4    5 1    
     8    4   70 1    
     9    5    6 1    
    10    5   65 1    
    11    5   71 1    
    12    6    7 1    
    13    6   72 1    
    14    6   73 1    
    15    7    8 1    
    16    8    9 1    
    17    8   74 1    
    18    8   75 1    
    19    9   10 ar   
    20    9   14 ar   
    21   10   11 ar   
    22   10   76 1    
    23   11   12 ar   
    24   11   48 1    
    25   12   13 ar   
    26   12   77 1    
    27   13   14 ar   
    28   13   15 1    
    29   14   78 1    
    30   15   16 1    
    31   15   79 1    
    32   15   80 1    
    33   16   17 1    
    34   17   18 1    
    35   17   81 1    
    36   17   82 1    
    37   18   19 1    
    38   18   22 1    
    39   18   83 1    
    40   19   20 am   BACKBONE|DICT|INTERRES
    41   19   21 2    
    42   20   84 1    
    43   20   85 1    
    44   22   23 am   BACKBONE|DICT|INTERRES
    45   22   86 1    
    46   23   24 2    
    47   23   25 1    
    48   25   26 1    
    49   25   27 1    
    50   25   87 1    
    51   26   88 1    
    52   26   89 1    
    53   26   90 1    
    54   27   28 am   BACKBONE|DICT|INTERRES
    55   27   91 1    
    56   28   29 2    
    57   28   30 1    
    58   30   31 1    
    59   30   32 1    
    60   30   92 1    
    61   31   93 1    
    62   31   94 1    
    63   31   95 1    
    64   32   33 am   BACKBONE|DICT|INTERRES
    65   32   96 1    
    66   33   34 2    
    67   33   35 1    
    68   35   36 1    
    69   35   37 1    
    70   35   97 1    
    71   36   98 1    
    72   36   99 1    
    73   36  100 1    
    74   37   38 am   BACKBONE|DICT|INTERRES
    75   37  101 1    
    76   38   39 2    
    77   38   40 1    
    78   40   41 1    
    79   40   42 1    
    80   40  102 1    
    81   41  103 1    
    82   41  104 1    
    83   41  105 1    
    84   42   43 am   BACKBONE|DICT|INTERRES
    85   42  106 1    
    86   43   44 2    
    87   43   45 1    
    88   45   46 1    
    89   45   49 1    
    90   45  107 1    
    91   46   47 1    
    92   46  108 1    
    93   46  109 1    
    94   47   48 1    
    95   48  110 1    
    96   48  111 1    
    97   49   50 am   BACKBONE|DICT|INTERRES
    98   49  112 1    
    99   50   51 2    
   100   50   52 1    
   101   52   53 1    
   102   52   54 1    
   103   52  113 1    
   104   53  114 1    
   105   53  115 1    
   106   53  116 1    
   107   54   55 am   BACKBONE|DICT|INTERRES
   108   54  117 1    
   109   55   56 2    
   110   55   57 1    
   111   57   58 1    
   112   57   59 1    
   113   57  118 1    
   114   58  119 1    
   115   58  120 1    
   116   58  121 1    
   117   59   60 am   BACKBONE|DICT|INTERRES
   118   59  122 1    
   119   60   61 2    
   120   60   62 1    
   121   62   63 1    
   122   62   64 1    
   123   62  123 1    
   124   63  124 1    
   125   63  125 1    
   126   63  126 1    
   127   64   65 am   BACKBONE|DICT|INTERRES
   128   64  127 1    
   129   65   66 2    
@<TRIPOS>SUBSTRUCTURE
     1 UNK         1 GROUP             0       ****    0 ROOT    
