@<TRIPOS>MOLECULE
3R135
127   129    1
SMALL
USER_CHARGES


@<TRIPOS>ATOM
      1 CA        -77.0297   27.1856  -71.3643 C.3       0 UNK        -0.1998 
      2 C         -78.3543   26.6401  -70.8564 C.2       0 UNK         0.4909 
      3 O         -78.3665   25.7845  -69.9719 O.2       0 UNK        -0.5240 
      4 N         -79.4707   27.1289  -71.4094 N.am      1 UNK        -0.4739 
      5 CA        -80.8356   26.8077  -70.9694 C.3       1 UNK         0.0864 
      6 C6        -81.8109   27.9926  -71.1985 C.3       11 UNK        -0.0881 
      7 S7        -81.2539   29.5349  -70.3898 S.3       11 UNK        -0.2682 
      8 C8        -81.3095   30.7374  -71.7566 C.3       11 UNK         0.0289 
      9 C9        -80.1551   30.5605  -72.7330 C.ar      11 UNK        -0.0687 
     10 C10       -80.3305   29.8167  -73.9040 C.ar      11 UNK        -0.0823 
     11 C11       -79.2780   29.6617  -74.8092 C.ar      11 UNK        -0.0830 
     12 C12       -78.0522   30.2801  -74.5541 C.ar      11 UNK        -0.1021 
     13 C13       -77.8686   31.0387  -73.3964 C.ar      11 UNK        -0.0753 
     14 C14       -78.9194   31.1682  -72.4823 C.ar      11 UNK        -0.0933 
     15 C15       -76.5373   31.7315  -73.1615 C.3       11 UNK         0.0166 
     16 S16       -75.3167   30.5866  -72.4537 S.3       11 UNK        -0.2615 
     17 C17       -73.7595   31.3064  -73.0859 C.3       11 UNK        -0.0865 
     18 CA        -73.1874   30.5084  -74.2966 C.3       10 UNK         0.0862 
     19 C         -71.9736   31.2223  -74.9683 C.2       10 UNK         0.5551 
     20 N         -70.9874   30.5031  -75.4888 N.am      10 UNK        -0.7319 
     21 O         -71.9363   32.4483  -75.0441 O.2       10 UNK        -0.5018 
     22 N         -72.9893   29.0808  -73.9829 N.am      10 UNK        -0.4509 
     23 C         -72.1295   28.5941  -73.0774 C.2       10 UNK         0.4899 
     24 O         -71.3037   29.2795  -72.4737 O.2       10 UNK        -0.4839 
     25 CA        -72.2078   27.0965  -72.7624 C.3       9 UNK         0.0222 
     26 CB        -73.2698   26.8335  -71.6826 C.3       9 UNK        -0.1966 
     27 N         -72.4911   26.2761  -73.9435 N.am      9 UNK        -0.4218 
     28 C         -71.9404   25.0738  -74.1608 C.2       9 UNK         0.5020 
     29 O         -71.1178   24.5489  -73.4079 O.2       9 UNK        -0.5274 
     30 CA        -72.3851   24.2993  -75.4114 C.3       8 UNK         0.0270 
     31 CB        -73.5769   23.3858  -75.0786 C.3       8 UNK        -0.1976 
     32 N         -72.7286   25.1428  -76.5563 N.am      8 UNK        -0.4313 
     33 C         -71.8568   25.8689  -77.2696 C.2       8 UNK         0.5041 
     34 O         -70.6627   25.9789  -76.9900 O.2       8 UNK        -0.5577 
     35 CA        -72.4058   26.5777  -78.5160 C.3       7 UNK         0.0284 
     36 CB        -72.5243   25.5879  -79.6874 C.3       7 UNK        -0.1958 
     37 N         -73.7160   27.1713  -78.2518 N.am      7 UNK        -0.4454 
     38 C         -73.9201   28.4615  -77.9573 C.2       7 UNK         0.5089 
     39 O         -73.0312   29.3119  -77.9383 O.2       7 UNK        -0.5125 
     40 CA        -75.3616   28.8838  -77.6177 C.3       6 UNK         0.0408 
     41 CB        -76.0646   29.4438  -78.8638 C.3       6 UNK        -0.1791 
     42 N         -76.1779   27.8111  -77.0435 N.am      6 UNK        -0.4762 
     43 C         -75.9413   27.2139  -75.8679 C.2       6 UNK         0.5007 
     44 O         -74.9772   27.4740  -75.1450 O.2       6 UNK        -0.5032 
     45 CA        -76.9146   26.0983  -75.4496 C.3       5 UNK         0.0783 
     46 C46       -78.1403   26.6679  -74.6872 C.3       11 UNK        -0.0857 
     47 S47       -79.6183   27.0467  -75.7002 S.3       11 UNK        -0.2512 
     48 C48       -79.4601   28.8251  -76.0646 C.3       11 UNK         0.0225 
     49 N         -77.3000   25.1713  -76.5199 N.am      5 UNK        -0.4615 
     50 C         -76.5044   24.5455  -77.3950 C.2       4 UNK         0.5053 
     51 O         -75.3027   24.7848  -77.5202 O.2       4 UNK        -0.5105 
     52 CA        -77.1642   23.4414  -78.2434 C.3       4 UNK         0.0263 
     53 CB        -76.1576   22.7316  -79.1686 C.3       4 UNK        -0.1981 
     54 N         -77.8115   22.4430  -77.3853 N.am      4 UNK        -0.4224 
     55 C         -79.0137   22.5823  -76.8098 C.2       3 UNK         0.4895 
     56 O         -79.7540   23.5442  -77.0274 O.2       3 UNK        -0.5091 
     57 CA        -79.4668   21.4871  -75.8221 C.3       3 UNK         0.0250 
     58 CB        -78.3135   20.6079  -75.2834 C.3       3 UNK        -0.1996 
     59 N         -80.2577   22.0428  -74.7145 N.am      3 UNK        -0.4254 
     60 C         -79.8558   22.9383  -73.7991 C.2       2 UNK         0.5004 
     61 O         -78.7114   23.3927  -73.7180 O.2       2 UNK        -0.5226 
     62 CA        -80.9128   23.3670  -72.7741 C.3       2 UNK         0.0269 
     63 CB        -81.0585   22.3024  -71.6686 C.3       2 UNK        -0.1926 
     64 N         -80.5444   24.6543  -72.1830 N.am      2 UNK        -0.4687 
     65 C         -81.3905   25.4892  -71.5647 C.2       1 UNK         0.5165 
     66 O         -82.5928   25.2434  -71.4480 O.2       1 UNK        -0.5079 
     67 H67       -77.1570   28.1293  -71.8951 H         1 UNK         0.0900 
     68 H68       -76.5632   26.4664  -72.0363 H         1 UNK         0.0900 
     69 H69       -76.3520   27.3650  -70.5300 H         1 UNK         0.0900 
     70 H70       -79.4062   27.8420  -72.1226 H         1 UNK         0.2959 
     71 H71       -80.8041   26.6366  -69.8908 H         1 UNK         0.1079 
     72 H72       -81.9654   28.1568  -72.2646 H         1 UNK         0.0837 
     73 H73       -82.7962   27.7611  -70.7895 H         1 UNK         0.0837 
     74 H74       -82.2676   30.6606  -72.2733 H         1 UNK         0.0685 
     75 H75       -81.2758   31.7433  -71.3354 H         1 UNK         0.0685 
     76 H76       -81.2837   29.3520  -74.1151 H         1 UNK         0.1434 
     77 H77       -77.2350   30.1704  -75.2541 H         1 UNK         0.1329 
     78 H78       -78.7807   31.7517  -71.5823 H         1 UNK         0.1335 
     79 H79       -76.6568   32.5886  -72.4969 H         1 UNK         0.0680 
     80 H80       -76.1718   32.1252  -74.1114 H         1 UNK         0.0680 
     81 H81       -73.0357   31.3321  -72.2701 H         1 UNK         0.1032 
     82 H82       -73.9326   32.3502  -73.3535 H         1 UNK         0.1032 
     83 H83       -73.9566   30.5173  -75.0687 H         1 UNK         0.0461 
     84 H84       -70.2136   30.9696  -75.9342 H         1 UNK         0.3453 
     85 H85       -71.0251   29.4973  -75.4570 H         1 UNK         0.3453 
     86 H86       -73.6763   28.4597  -74.4029 H         1 UNK         0.2984 
     87 H87       -71.2332   26.8222  -72.3526 H         1 UNK         0.0554 
     88 H88       -73.2895   25.7846  -71.3869 H         1 UNK         0.0847 
     89 H89       -74.2633   27.1043  -72.0375 H         1 UNK         0.0847 
     90 H90       -73.0719   27.4219  -70.7855 H         1 UNK         0.0847 
     91 H91       -73.1752   26.6298  -74.6030 H         1 UNK         0.3141 
     92 H92       -71.5492   23.6644  -75.7133 H         1 UNK         0.0743 
     93 H93       -73.3344   22.7104  -74.2569 H         1 UNK         0.0784 
     94 H94       -74.4544   23.9596  -74.7805 H         1 UNK         0.0784 
     95 H95       -73.8551   22.7683  -75.9331 H         1 UNK         0.0784 
     96 H96       -73.6884   25.0707  -76.8934 H         1 UNK         0.3213 
     97 H97       -71.6913   27.3529  -78.8022 H         1 UNK         0.0855 
     98 H98       -71.5596   25.1294  -79.9092 H         1 UNK         0.0814 
     99 H99       -72.8606   26.0892  -80.5950 H         1 UNK         0.0814 
    100 H100      -73.2269   24.7819  -79.4710 H         1 UNK         0.0814 
    101 H101      -74.5010   26.5318  -78.1940 H         1 UNK         0.3105 
    102 H102      -75.3006   29.6833  -76.8773 H         1 UNK         0.0547 
    103 H103      -75.4878   30.2590  -79.3031 H         1 UNK         0.0837 
    104 H104      -76.1893   28.6821  -79.6344 H         1 UNK         0.0837 
    105 H105      -77.0492   29.8431  -78.6211 H         1 UNK         0.0837 
    106 H106      -76.9720   27.4966  -77.5828 H         1 UNK         0.3020 
    107 H107      -76.3556   25.4913  -74.7346 H         1 UNK         0.1245 
    108 H108      -77.8654   27.5308  -74.0826 H         1 UNK         0.0781 
    109 H109      -78.4668   25.9248  -73.9623 H         1 UNK         0.0781 
    110 H110      -80.3583   29.1561  -76.5880 H         1 UNK         0.0836 
    111 H111      -78.6358   28.9822  -76.7594 H         1 UNK         0.0836 
    112 H112      -78.2788   24.9022  -76.5179 H         1 UNK         0.3022 
    113 H113      -77.9177   23.9199  -78.8727 H         1 UNK         0.0747 
    114 H114      -76.6471   21.9745  -79.7813 H         1 UNK         0.0793 
    115 H115      -75.6855   23.4413  -79.8495 H         1 UNK         0.0793 
    116 H116      -75.3619   22.2443  -78.6034 H         1 UNK         0.0793 
    117 H117      -77.2531   21.6405  -77.1325 H         1 UNK         0.3047 
    118 H118      -80.1424   20.8393  -76.3826 H         1 UNK         0.0822 
    119 H119      -78.6801   19.8882  -74.5512 H         1 UNK         0.0807 
    120 H120      -77.5372   21.2019  -74.7989 H         1 UNK         0.0807 
    121 H121      -77.8440   20.0308  -76.0808 H         1 UNK         0.0807 
    122 H122      -81.2250   21.7507  -74.6954 H         1 UNK         0.2946 
    123 H123      -81.8644   23.4820  -73.2987 H         1 UNK         0.1144 
    124 H124      -81.3129   21.3282  -72.0881 H         1 UNK         0.0793 
    125 H125      -81.8480   22.5620  -70.9632 H         1 UNK         0.0793 
    126 H126      -80.1324   22.1833  -71.1046 H         1 UNK         0.0793 
    127 H127      -79.5672   24.9016  -72.2712 H         1 UNK         0.2896 
@<TRIPOS>BOND
     1    1    2 1    
     2    1   67 1    
     3    1   68 1    
     4    1   69 1    
     5    2    3 2    
     6    2    4 am   BACKBONE|DICT|INTERRES
     7    4    5 1    
     8    4   70 1    
     9    5    6 1    
    10    5   65 1    
    11    5   71 1    
    12    6    7 1    
    13    6   72 1    
    14    6   73 1    
    15    7    8 1    
    16    8    9 1    
    17    8   74 1    
    18    8   75 1    
    19    9   10 ar   
    20    9   14 ar   
    21   10   11 ar   
    22   10   76 1    
    23   11   12 ar   
    24   11   48 1    
    25   12   13 ar   
    26   12   77 1    
    27   13   14 ar   
    28   13   15 1    
    29   14   78 1    
    30   15   16 1    
    31   15   79 1    
    32   15   80 1    
    33   16   17 1    
    34   17   18 1    
    35   17   81 1    
    36   17   82 1    
    37   18   19 1    
    38   18   22 1    
    39   18   83 1    
    40   19   20 am   BACKBONE|DICT|INTERRES
    41   19   21 2    
    42   20   84 1    
    43   20   85 1    
    44   22   23 am   BACKBONE|DICT|INTERRES
    45   22   86 1    
    46   23   24 2    
    47   23   25 1    
    48   25   26 1    
    49   25   27 1    
    50   25   87 1    
    51   26   88 1    
    52   26   89 1    
    53   26   90 1    
    54   27   28 am   BACKBONE|DICT|INTERRES
    55   27   91 1    
    56   28   29 2    
    57   28   30 1    
    58   30   31 1    
    59   30   32 1    
    60   30   92 1    
    61   31   93 1    
    62   31   94 1    
    63   31   95 1    
    64   32   33 am   BACKBONE|DICT|INTERRES
    65   32   96 1    
    66   33   34 2    
    67   33   35 1    
    68   35   36 1    
    69   35   37 1    
    70   35   97 1    
    71   36   98 1    
    72   36   99 1    
    73   36  100 1    
    74   37   38 am   BACKBONE|DICT|INTERRES
    75   37  101 1    
    76   38   39 2    
    77   38   40 1    
    78   40   41 1    
    79   40   42 1    
    80   40  102 1    
    81   41  103 1    
    82   41  104 1    
    83   41  105 1    
    84   42   43 am   BACKBONE|DICT|INTERRES
    85   42  106 1    
    86   43   44 2    
    87   43   45 1    
    88   45   46 1    
    89   45   49 1    
    90   45  107 1    
    91   46   47 1    
    92   46  108 1    
    93   46  109 1    
    94   47   48 1    
    95   48  110 1    
    96   48  111 1    
    97   49   50 am   BACKBONE|DICT|INTERRES
    98   49  112 1    
    99   50   51 2    
   100   50   52 1    
   101   52   53 1    
   102   52   54 1    
   103   52  113 1    
   104   53  114 1    
   105   53  115 1    
   106   53  116 1    
   107   54   55 am   BACKBONE|DICT|INTERRES
   108   54  117 1    
   109   55   56 2    
   110   55   57 1    
   111   57   58 1    
   112   57   59 1    
   113   57  118 1    
   114   58  119 1    
   115   58  120 1    
   116   58  121 1    
   117   59   60 am   BACKBONE|DICT|INTERRES
   118   59  122 1    
   119   60   61 2    
   120   60   62 1    
   121   62   63 1    
   122   62   64 1    
   123   62  123 1    
   124   63  124 1    
   125   63  125 1    
   126   63  126 1    
   127   64   65 am   BACKBONE|DICT|INTERRES
   128   64  127 1    
   129   65   66 2    
@<TRIPOS>SUBSTRUCTURE
     1 UNK         1 GROUP             0       ****    0 ROOT    
