@<TRIPOS>MOLECULE
3R135
127   129    1
SMALL
USER_CHARGES


@<TRIPOS>ATOM
      1 CA        -76.0191   23.7643  -69.1697 C.3       0 UNK        -0.1998 
      2 C         -77.5356   23.8105  -69.2664 C.2       0 UNK         0.4909 
      3 O         -78.2109   22.9144  -68.7596 O.2       0 UNK        -0.5240 
      4 N         -78.0775   24.8511  -69.9117 N.am      1 UNK        -0.4739 
      5 CA        -79.5186   25.0667  -70.1058 C.3       1 UNK         0.0864 
      6 C6        -79.8433   26.5618  -70.3489 C.3       11 UNK        -0.0881 
      7 S7        -78.9257   27.3273  -71.7304 S.3       11 UNK        -0.2682 
      8 C8        -79.4937   29.0439  -71.5398 C.3       11 UNK         0.0289 
      9 C9        -78.9858   29.9306  -72.6645 C.ar      11 UNK        -0.0687 
     10 C10       -79.6956   30.0110  -73.8659 C.ar      11 UNK        -0.0823 
     11 C11       -79.2467   30.8391  -74.8976 C.ar      11 UNK        -0.0830 
     12 C12       -78.0914   31.6025  -74.7131 C.ar      11 UNK        -0.1021 
     13 C13       -77.3486   31.5025  -73.5333 C.ar      11 UNK        -0.0753 
     14 C14       -77.8128   30.6754  -72.5047 C.ar      11 UNK        -0.0933 
     15 C15       -76.0455   32.2781  -73.3692 C.3       11 UNK         0.0166 
     16 S16       -74.9414   32.0866  -74.8118 S.3       11 UNK        -0.2615 
     17 C17       -73.3050   32.4567  -74.0911 C.3       11 UNK        -0.0865 
     18 CA        -72.4109   31.1909  -74.0008 C.3       10 UNK         0.0862 
     19 C         -70.9733   31.5454  -73.5207 C.2       10 UNK         0.5551 
     20 N         -70.4801   30.9875  -72.4217 N.am      10 UNK        -0.7319 
     21 O         -70.2903   32.3392  -74.1632 O.2       10 UNK        -0.5018 
     22 N         -73.0706   30.1214  -73.2333 N.am      10 UNK        -0.4509 
     23 C         -72.8545   28.8114  -73.3921 C.2       10 UNK         0.4899 
     24 O         -72.0186   28.3443  -74.1662 O.2       10 UNK        -0.4839 
     25 CA        -73.7079   27.8558  -72.5442 C.3       9 UNK         0.0222 
     26 CB        -74.8568   28.5343  -71.7665 C.3       9 UNK        -0.1966 
     27 N         -74.2531   26.8255  -73.4197 N.am      9 UNK        -0.4218 
     28 C         -74.5762   25.5855  -73.0393 C.2       9 UNK         0.5020 
     29 O         -74.4376   25.1584  -71.8924 O.2       9 UNK        -0.5274 
     30 CA        -75.1787   24.6650  -74.1101 C.3       8 UNK         0.0270 
     31 CB        -76.6841   24.9311  -74.2363 C.3       8 UNK        -0.1976 
     32 N         -74.5594   24.8041  -75.4279 N.am      8 UNK        -0.4313 
     33 C         -73.2933   24.4896  -75.7337 C.2       8 UNK         0.5041 
     34 O         -72.4829   24.0323  -74.9271 O.2       8 UNK        -0.5577 
     35 CA        -72.8589   24.7170  -77.1895 C.3       7 UNK         0.0284 
     36 CB        -73.2848   23.5322  -78.0729 C.3       7 UNK        -0.1958 
     37 N         -73.4367   25.9536  -77.7183 N.am      7 UNK        -0.4454 
     38 C         -72.8007   27.1315  -77.7582 C.2       7 UNK         0.5089 
     39 O         -71.6144   27.2772  -77.4622 O.2       7 UNK        -0.5125 
     40 CA        -73.6039   28.3621  -78.2242 C.3       6 UNK         0.0408 
     41 CB        -73.2458   28.7148  -79.6769 C.3       6 UNK        -0.1791 
     42 N         -75.0598   28.2232  -78.1130 N.am      6 UNK        -0.4762 
     43 C         -75.7371   28.1601  -76.9575 C.2       6 UNK         0.5007 
     44 O         -75.2015   28.1510  -75.8491 O.2       6 UNK        -0.5032 
     45 CA        -77.2723   28.0391  -77.0632 C.3       5 UNK         0.0783 
     46 C46       -77.8930   29.4030  -77.4564 C.3       11 UNK        -0.0857 
     47 S47       -79.7081   29.4083  -77.2376 S.3       11 UNK        -0.2512 
     48 C48       -79.9926   30.8964  -76.2221 C.3       11 UNK         0.0225 
     49 N         -77.7503   26.9811  -77.9684 N.am      5 UNK        -0.4615 
     50 C         -77.2648   25.7467  -78.1525 C.2       4 UNK         0.5053 
     51 O         -76.2448   25.3134  -77.6171 O.2       4 UNK        -0.5105 
     52 CA        -78.0858   24.8523  -79.0960 C.3       4 UNK         0.0263 
     53 CB        -77.2305   23.7685  -79.7876 C.3       4 UNK        -0.1981 
     54 N         -79.2442   24.2814  -78.3956 N.am      4 UNK        -0.4224 
     55 C         -79.2351   23.3917  -77.3914 C.2       3 UNK         0.4895 
     56 O         -78.2300   22.8058  -76.9833 O.2       3 UNK        -0.5091 
     57 CA        -80.6038   23.0746  -76.7592 C.3       3 UNK         0.0250 
     58 CB        -81.3517   22.0197  -77.5911 C.3       3 UNK        -0.1996 
     59 N         -80.4546   22.5802  -75.3879 N.am      3 UNK        -0.4254 
     60 C         -80.0667   23.3343  -74.3512 C.2       2 UNK         0.5004 
     61 O         -79.9661   24.5614  -74.4051 O.2       2 UNK        -0.5226 
     62 CA        -79.7072   22.5722  -73.0610 C.3       2 UNK         0.0269 
     63 CB        -78.5499   21.5852  -73.3018 C.3       2 UNK        -0.1926 
     64 N         -79.3126   23.4724  -71.9770 N.am      2 UNK        -0.4687 
     65 C         -80.1490   24.1467  -71.1784 C.2       1 UNK         0.5165 
     66 O         -81.3756   24.0457  -71.2417 O.2       1 UNK        -0.5079 
     67 H67       -75.6222   23.0032  -69.8412 H         1 UNK         0.0900 
     68 H68       -75.7118   23.5188  -68.1532 H         1 UNK         0.0900 
     69 H69       -75.5686   24.7209  -69.4350 H         1 UNK         0.0900 
     70 H70       -77.4800   25.5588  -70.3170 H         1 UNK         0.2959 
     71 H71       -80.0127   24.7889  -69.1717 H         1 UNK         0.1079 
     72 H72       -80.9134   26.7009  -70.5150 H         1 UNK         0.0837 
     73 H73       -79.6134   27.1244  -69.4428 H         1 UNK         0.0837 
     74 H74       -79.1605   29.4294  -70.5749 H         1 UNK         0.0685 
     75 H75       -80.5844   29.0650  -71.5202 H         1 UNK         0.0685 
     76 H76       -80.5904   29.4192  -74.0030 H         1 UNK         0.1434 
     77 H77       -77.7429   32.2471  -75.5084 H         1 UNK         0.1329 
     78 H78       -77.2586   30.6024  -71.5792 H         1 UNK         0.1335 
     79 H79       -76.2697   33.3356  -73.2257 H         1 UNK         0.0680 
     80 H80       -75.5242   31.9430  -72.4719 H         1 UNK         0.0680 
     81 H81       -73.4200   32.9221  -73.1106 H         1 UNK         0.1032 
     82 H82       -72.8325   33.2098  -74.7249 H         1 UNK         0.1032 
     83 H83       -72.2870   30.8213  -75.0211 H         1 UNK         0.0461 
     84 H84       -69.5464   31.2216  -72.1230 H         1 UNK         0.3453 
     85 H85       -71.0308   30.3296  -71.8944 H         1 UNK         0.3453 
     86 H86       -73.7745   30.4175  -72.5759 H         1 UNK         0.2984 
     87 H87       -73.0287   27.3917  -71.8271 H         1 UNK         0.0554 
     88 H88       -75.4196   27.8079  -71.1798 H         1 UNK         0.0847 
     89 H89       -75.5592   29.0168  -72.4456 H         1 UNK         0.0847 
     90 H90       -74.4861   29.2825  -71.0658 H         1 UNK         0.0847 
     91 H91       -74.4068   27.1106  -74.3848 H         1 UNK         0.3141 
     92 H92       -75.0367   23.6337  -73.7830 H         1 UNK         0.0743 
     93 H93       -76.8887   25.9415  -74.5889 H         1 UNK         0.0784 
     94 H94       -77.1514   24.2369  -74.9332 H         1 UNK         0.0784 
     95 H95       -77.1852   24.8201  -73.2752 H         1 UNK         0.0784 
     96 H96       -75.1739   25.1014  -76.1841 H         1 UNK         0.3213 
     97 H97       -71.7684   24.7737  -77.2086 H         1 UNK         0.0855 
     98 H98       -74.3672   23.3994  -78.0837 H         1 UNK         0.0814 
     99 H99       -72.8469   22.6012  -77.7110 H         1 UNK         0.0814 
    100 H100      -72.9542   23.6674  -79.1027 H         1 UNK         0.0814 
    101 H101      -74.4265   25.9270  -77.9427 H         1 UNK         0.3105 
    102 H102      -73.3035   29.1981  -77.5885 H         1 UNK         0.0547 
    103 H103      -72.1707   28.8616  -79.7892 H         1 UNK         0.0837 
    104 H104      -73.5397   27.9245  -80.3687 H         1 UNK         0.0837 
    105 H105      -73.7301   29.6386  -79.9934 H         1 UNK         0.0837 
    106 H106      -75.5811   28.1884  -78.9774 H         1 UNK         0.3020 
    107 H107      -77.6269   27.7811  -76.0629 H         1 UNK         0.1245 
    108 H108      -77.6756   29.6378  -78.5000 H         1 UNK         0.0781 
    109 H109      -77.4463   30.2115  -76.8792 H         1 UNK         0.0781 
    110 H110      -81.0623   30.9971  -76.0325 H         1 UNK         0.0836 
    111 H111      -79.7012   31.7792  -76.7933 H         1 UNK         0.0836 
    112 H112      -78.6039   27.2181  -78.4530 H         1 UNK         0.3022 
    113 H113      -78.4851   25.4909  -79.8853 H         1 UNK         0.0747 
    114 H114      -77.8320   23.1614  -80.4641 H         1 UNK         0.0793 
    115 H115      -76.4357   24.2244  -80.3786 H         1 UNK         0.0793 
    116 H116      -76.7510   23.0984  -79.0743 H         1 UNK         0.0793 
    117 H117      -80.1361   24.6807  -78.6536 H         1 UNK         0.3047 
    118 H118      -81.1980   23.9903  -76.7317 H         1 UNK         0.0822 
    119 H119      -81.5150   22.3667  -78.6122 H         1 UNK         0.0807 
    120 H120      -82.3308   21.7999  -77.1659 H         1 UNK         0.0807 
    121 H121      -80.7940   21.0846  -77.6518 H         1 UNK         0.0807 
    122 H122      -80.4829   21.5788  -75.2722 H         1 UNK         0.2946 
    123 H123      -80.5900   22.0111  -72.7477 H         1 UNK         0.1144 
    124 H124      -78.2747   21.0666  -72.3835 H         1 UNK         0.0793 
    125 H125      -77.6607   22.0896  -73.6798 H         1 UNK         0.0793 
    126 H126      -78.8199   20.8193  -74.0291 H         1 UNK         0.0793 
    127 H127      -78.3254   23.6414  -71.8634 H         1 UNK         0.2896 
@<TRIPOS>BOND
     1    1    2 1    
     2    1   67 1    
     3    1   68 1    
     4    1   69 1    
     5    2    3 2    
     6    2    4 am   BACKBONE|DICT|INTERRES
     7    4    5 1    
     8    4   70 1    
     9    5    6 1    
    10    5   65 1    
    11    5   71 1    
    12    6    7 1    
    13    6   72 1    
    14    6   73 1    
    15    7    8 1    
    16    8    9 1    
    17    8   74 1    
    18    8   75 1    
    19    9   10 ar   
    20    9   14 ar   
    21   10   11 ar   
    22   10   76 1    
    23   11   12 ar   
    24   11   48 1    
    25   12   13 ar   
    26   12   77 1    
    27   13   14 ar   
    28   13   15 1    
    29   14   78 1    
    30   15   16 1    
    31   15   79 1    
    32   15   80 1    
    33   16   17 1    
    34   17   18 1    
    35   17   81 1    
    36   17   82 1    
    37   18   19 1    
    38   18   22 1    
    39   18   83 1    
    40   19   20 am   BACKBONE|DICT|INTERRES
    41   19   21 2    
    42   20   84 1    
    43   20   85 1    
    44   22   23 am   BACKBONE|DICT|INTERRES
    45   22   86 1    
    46   23   24 2    
    47   23   25 1    
    48   25   26 1    
    49   25   27 1    
    50   25   87 1    
    51   26   88 1    
    52   26   89 1    
    53   26   90 1    
    54   27   28 am   BACKBONE|DICT|INTERRES
    55   27   91 1    
    56   28   29 2    
    57   28   30 1    
    58   30   31 1    
    59   30   32 1    
    60   30   92 1    
    61   31   93 1    
    62   31   94 1    
    63   31   95 1    
    64   32   33 am   BACKBONE|DICT|INTERRES
    65   32   96 1    
    66   33   34 2    
    67   33   35 1    
    68   35   36 1    
    69   35   37 1    
    70   35   97 1    
    71   36   98 1    
    72   36   99 1    
    73   36  100 1    
    74   37   38 am   BACKBONE|DICT|INTERRES
    75   37  101 1    
    76   38   39 2    
    77   38   40 1    
    78   40   41 1    
    79   40   42 1    
    80   40  102 1    
    81   41  103 1    
    82   41  104 1    
    83   41  105 1    
    84   42   43 am   BACKBONE|DICT|INTERRES
    85   42  106 1    
    86   43   44 2    
    87   43   45 1    
    88   45   46 1    
    89   45   49 1    
    90   45  107 1    
    91   46   47 1    
    92   46  108 1    
    93   46  109 1    
    94   47   48 1    
    95   48  110 1    
    96   48  111 1    
    97   49   50 am   BACKBONE|DICT|INTERRES
    98   49  112 1    
    99   50   51 2    
   100   50   52 1    
   101   52   53 1    
   102   52   54 1    
   103   52  113 1    
   104   53  114 1    
   105   53  115 1    
   106   53  116 1    
   107   54   55 am   BACKBONE|DICT|INTERRES
   108   54  117 1    
   109   55   56 2    
   110   55   57 1    
   111   57   58 1    
   112   57   59 1    
   113   57  118 1    
   114   58  119 1    
   115   58  120 1    
   116   58  121 1    
   117   59   60 am   BACKBONE|DICT|INTERRES
   118   59  122 1    
   119   60   61 2    
   120   60   62 1    
   121   62   63 1    
   122   62   64 1    
   123   62  123 1    
   124   63  124 1    
   125   63  125 1    
   126   63  126 1    
   127   64   65 am   BACKBONE|DICT|INTERRES
   128   64  127 1    
   129   65   66 2    
@<TRIPOS>SUBSTRUCTURE
     1 UNK         1 GROUP             0       ****    0 ROOT    
