@<TRIPOS>MOLECULE
3R135
127   129    1
SMALL
USER_CHARGES


@<TRIPOS>ATOM
      1 CA        -79.1568   21.7982  -70.2824 C.3       0 UNK        -0.1998 
      2 C         -80.4090   22.5053  -70.7770 C.2       0 UNK         0.4909 
      3 O         -81.4673   21.8845  -70.8781 O.2       0 UNK        -0.5240 
      4 N         -80.2966   23.7966  -71.1109 N.am      1 UNK        -0.4739 
      5 CA        -81.3711   24.6782  -71.5921 C.3       1 UNK         0.0864 
      6 C6        -81.0388   26.1674  -71.2891 C.3       11 UNK        -0.0881 
      7 S7        -79.4190   26.7176  -71.9386 S.3       11 UNK        -0.2682 
      8 C8        -79.5482   28.5200  -71.7050 C.3       11 UNK         0.0289 
      9 C9        -78.3718   29.2479  -72.3426 C.ar      11 UNK        -0.0687 
     10 C10       -78.5518   30.0252  -73.4926 C.ar      11 UNK        -0.0823 
     11 C11       -77.4682   30.6602  -74.1104 C.ar      11 UNK        -0.0830 
     12 C12       -76.1971   30.5373  -73.5334 C.ar      11 UNK        -0.1021 
     13 C13       -76.0082   29.7900  -72.3667 C.ar      11 UNK        -0.0753 
     14 C14       -77.0979   29.1437  -71.7791 C.ar      11 UNK        -0.0933 
     15 C15       -74.6229   29.6678  -71.7530 C.3       11 UNK         0.0166 
     16 S16       -74.0598   31.2479  -71.0432 S.3       11 UNK        -0.2615 
     17 C17       -72.4914   30.7641  -70.2380 C.3       11 UNK        -0.0865 
     18 CA        -71.2297   31.1185  -71.0834 C.3       10 UNK         0.0862 
     19 C         -69.9028   30.9898  -70.2717 C.2       10 UNK         0.5551 
     20 N         -68.7851   30.6280  -70.8899 N.am      10 UNK        -0.7319 
     21 O         -69.8743   31.2536  -69.0718 O.2       10 UNK        -0.5018 
     22 N         -71.2204   30.4494  -72.3989 N.am      10 UNK        -0.4509 
     23 C         -71.1744   29.1269  -72.5996 C.2       10 UNK         0.4899 
     24 O         -71.0436   28.2879  -71.7050 O.2       10 UNK        -0.4839 
     25 CA        -71.3419   28.6540  -74.0452 C.3       9 UNK         0.0222 
     26 CB        -69.9819   28.3636  -74.7011 C.3       9 UNK        -0.1966 
     27 N         -72.1510   27.4398  -74.0125 N.am      9 UNK        -0.4218 
     28 C         -73.1125   27.1219  -74.8827 C.2       9 UNK         0.5020 
     29 O         -73.3940   27.7910  -75.8796 O.2       9 UNK        -0.5274 
     30 CA        -73.9319   25.8634  -74.5560 C.3       8 UNK         0.0270 
     31 CB        -75.2079   26.2395  -73.7819 C.3       8 UNK        -0.1976 
     32 N         -74.2970   25.1502  -75.7800 N.am      8 UNK        -0.4313 
     33 C         -73.4381   24.4256  -76.5133 C.2       8 UNK         0.5041 
     34 O         -72.2780   24.1970  -76.1666 O.2       8 UNK        -0.5577 
     35 CA        -73.9258   23.8701  -77.8609 C.3       7 UNK         0.0284 
     36 CB        -74.3954   22.4109  -77.7325 C.3       7 UNK        -0.1958 
     37 N         -74.9986   24.6840  -78.4323 N.am      7 UNK        -0.4454 
     38 C         -75.0462   25.1236  -79.6955 C.2       7 UNK         0.5089 
     39 O         -74.2131   24.8478  -80.5595 O.2       7 UNK        -0.5125 
     40 CA        -76.2211   26.0462  -80.0458 C.3       6 UNK         0.0408 
     41 CB        -77.4946   25.2247  -80.3040 C.3       6 UNK        -0.1791 
     42 N         -76.4709   26.9942  -78.9615 N.am      6 UNK        -0.4762 
     43 C         -75.9381   28.2187  -78.8528 C.2       6 UNK         0.5007 
     44 O         -75.2022   28.7058  -79.7127 O.2       6 UNK        -0.5032 
     45 CA        -76.2347   29.0305  -77.5645 C.3       5 UNK         0.0783 
     46 C46       -76.7069   30.4822  -77.8566 C.3       11 UNK        -0.0857 
     47 S47       -76.2885   31.6331  -76.5013 S.3       11 UNK        -0.2512 
     48 C48       -77.7141   31.5118  -75.3603 C.3       11 UNK         0.0225 
     49 N         -77.1106   28.3432  -76.6037 N.am      5 UNK        -0.4615 
     50 C         -78.3935   27.9927  -76.7729 C.2       4 UNK         0.5053 
     51 O         -79.0332   28.1712  -77.8102 O.2       4 UNK        -0.5105 
     52 CA        -79.0649   27.3032  -75.5763 C.3       4 UNK         0.0263 
     53 CB        -80.5110   27.8095  -75.4139 C.3       4 UNK        -0.1981 
     54 N         -79.0719   25.8344  -75.6054 N.am      4 UNK        -0.4224 
     55 C         -78.1052   24.9905  -76.0054 C.2       3 UNK         0.4895 
     56 O         -77.0466   25.3389  -76.5356 O.2       3 UNK        -0.5091 
     57 CA        -78.3130   23.4865  -75.7359 C.3       3 UNK         0.0250 
     58 CB        -77.2077   22.9508  -74.8084 C.3       3 UNK        -0.1996 
     59 N         -79.6013   23.1612  -75.1236 N.am      3 UNK        -0.4254 
     60 C         -80.7714   23.0243  -75.7607 C.2       2 UNK         0.5004 
     61 O         -80.9075   23.1388  -76.9784 O.2       2 UNK        -0.5226 
     62 CA        -81.9986   22.7214  -74.8777 C.3       2 UNK         0.0269 
     63 CB        -82.3270   21.2202  -74.9090 C.3       2 UNK        -0.1926 
     64 N         -81.8186   23.1444  -73.4820 N.am      2 UNK        -0.4687 
     65 C         -81.7488   24.4189  -73.0737 C.2       1 UNK         0.5165 
     66 O         -81.9365   25.3612  -73.8421 O.2       1 UNK        -0.5079 
     67 H67       -79.3173   21.4127  -69.2760 H         1 UNK         0.0900 
     68 H68       -78.9168   20.9592  -70.9349 H         1 UNK         0.0900 
     69 H69       -78.2953   22.4654  -70.2566 H         1 UNK         0.0900 
     70 H70       -79.3966   24.2503  -71.0309 H         1 UNK         0.2959 
     71 H71       -82.2729   24.4362  -71.0250 H         1 UNK         0.1079 
     72 H72       -81.8245   26.8238  -71.6684 H         1 UNK         0.0837 
     73 H73       -81.0298   26.3204  -70.2088 H         1 UNK         0.0837 
     74 H74       -79.5835   28.7448  -70.6380 H         1 UNK         0.0685 
     75 H75       -80.4896   28.8722  -72.1292 H         1 UNK         0.0685 
     76 H76       -79.5418   30.1308  -73.9126 H         1 UNK         0.1434 
     77 H77       -75.3466   31.0375  -73.9749 H         1 UNK         0.1329 
     78 H78       -76.9580   28.5504  -70.8857 H         1 UNK         0.1335 
     79 H79       -73.9340   29.3457  -72.5310 H         1 UNK         0.0680 
     80 H80       -74.6082   28.8962  -70.9817 H         1 UNK         0.0680 
     81 H81       -72.4635   31.2893  -69.2816 H         1 UNK         0.1032 
     82 H82       -72.5088   29.7030  -69.9857 H         1 UNK         0.1032 
     83 H83       -71.2934   32.1833  -71.3107 H         1 UNK         0.0461 
     84 H84       -67.9285   30.5571  -70.3636 H         1 UNK         0.3453 
     85 H85       -68.7937   30.4181  -71.8749 H         1 UNK         0.3453 
     86 H86       -71.3102   31.0623  -73.1968 H         1 UNK         0.2984 
     87 H87       -71.8588   29.4318  -74.6120 H         1 UNK         0.0554 
     88 H88       -70.1052   28.0144  -75.7265 H         1 UNK         0.0847 
     89 H89       -69.4238   27.6025  -74.1539 H         1 UNK         0.0847 
     90 H90       -69.3641   29.2617  -74.7362 H         1 UNK         0.0847 
     91 H91       -72.0165   26.8740  -73.1833 H         1 UNK         0.3141 
     92 H92       -73.3321   25.1967  -73.9325 H         1 UNK         0.0743 
     93 H93       -74.9639   26.7434  -72.8460 H         1 UNK         0.0784 
     94 H94       -75.8478   26.9118  -74.3528 H         1 UNK         0.0784 
     95 H95       -75.7941   25.3573  -73.5267 H         1 UNK         0.0784 
     96 H96       -75.2440   25.2987  -76.1127 H         1 UNK         0.3213 
     97 H97       -73.0583   23.8879  -78.5245 H         1 UNK         0.0855 
     98 H98       -75.3098   22.3263  -77.1468 H         1 UNK         0.0814 
     99 H99       -73.6358   21.7947  -77.2495 H         1 UNK         0.0814 
    100 H100      -74.5893   21.9751  -78.7127 H         1 UNK         0.0814 
    101 H101      -75.7490   24.9595  -77.8059 H         1 UNK         0.3105 
    102 H102      -75.9733   26.5874  -80.9614 H         1 UNK         0.0547 
    103 H103      -77.8004   24.6568  -79.4242 H         1 UNK         0.0837 
    104 H104      -78.3270   25.8676  -80.5908 H         1 UNK         0.0837 
    105 H105      -77.3407   24.5122  -81.1155 H         1 UNK         0.0837 
    106 H106      -77.0433   26.6663  -78.1929 H         1 UNK         0.3020 
    107 H107      -75.2618   29.0984  -77.0764 H         1 UNK         0.1245 
    108 H108      -77.7741   30.5268  -78.0768 H         1 UNK         0.0781 
    109 H109      -76.2129   30.8825  -78.7437 H         1 UNK         0.0781 
    110 H110      -77.9701   32.5198  -75.0320 H         1 UNK         0.0836 
    111 H111      -78.5825   31.1415  -75.9071 H         1 UNK         0.0836 
    112 H112      -76.6744   28.1303  -75.7189 H         1 UNK         0.3022 
    113 H113      -78.5067   27.5837  -74.6839 H         1 UNK         0.0747 
    114 H114      -80.5839   28.8843  -75.5832 H         1 UNK         0.0793 
    115 H115      -80.8867   27.6240  -74.4094 H         1 UNK         0.0793 
    116 H116      -81.1873   27.3284  -76.1213 H         1 UNK         0.0793 
    117 H117      -79.8948   25.4154  -75.1946 H         1 UNK         0.3047 
    118 H118      -78.2373   22.9751  -76.6979 H         1 UNK         0.0822 
    119 H119      -77.2723   23.3872  -73.8110 H         1 UNK         0.0807 
    120 H120      -76.2134   23.1745  -75.1918 H         1 UNK         0.0807 
    121 H121      -77.2717   21.8676  -74.7032 H         1 UNK         0.0807 
    122 H122      -79.6043   23.0456  -74.1208 H         1 UNK         0.2946 
    123 H123      -82.8446   23.2710  -75.2974 H         1 UNK         0.1144 
    124 H124      -82.4895   20.8769  -75.9318 H         1 UNK         0.0793 
    125 H125      -83.2354   21.0014  -74.3473 H         1 UNK         0.0793 
    126 H126      -81.5189   20.6208  -74.4876 H         1 UNK         0.0793 
    127 H127      -81.6980   22.4206  -72.7796 H         1 UNK         0.2896 
@<TRIPOS>BOND
     1    1    2 1    
     2    1   67 1    
     3    1   68 1    
     4    1   69 1    
     5    2    3 2    
     6    2    4 am   BACKBONE|DICT|INTERRES
     7    4    5 1    
     8    4   70 1    
     9    5    6 1    
    10    5   65 1    
    11    5   71 1    
    12    6    7 1    
    13    6   72 1    
    14    6   73 1    
    15    7    8 1    
    16    8    9 1    
    17    8   74 1    
    18    8   75 1    
    19    9   10 ar   
    20    9   14 ar   
    21   10   11 ar   
    22   10   76 1    
    23   11   12 ar   
    24   11   48 1    
    25   12   13 ar   
    26   12   77 1    
    27   13   14 ar   
    28   13   15 1    
    29   14   78 1    
    30   15   16 1    
    31   15   79 1    
    32   15   80 1    
    33   16   17 1    
    34   17   18 1    
    35   17   81 1    
    36   17   82 1    
    37   18   19 1    
    38   18   22 1    
    39   18   83 1    
    40   19   20 am   BACKBONE|DICT|INTERRES
    41   19   21 2    
    42   20   84 1    
    43   20   85 1    
    44   22   23 am   BACKBONE|DICT|INTERRES
    45   22   86 1    
    46   23   24 2    
    47   23   25 1    
    48   25   26 1    
    49   25   27 1    
    50   25   87 1    
    51   26   88 1    
    52   26   89 1    
    53   26   90 1    
    54   27   28 am   BACKBONE|DICT|INTERRES
    55   27   91 1    
    56   28   29 2    
    57   28   30 1    
    58   30   31 1    
    59   30   32 1    
    60   30   92 1    
    61   31   93 1    
    62   31   94 1    
    63   31   95 1    
    64   32   33 am   BACKBONE|DICT|INTERRES
    65   32   96 1    
    66   33   34 2    
    67   33   35 1    
    68   35   36 1    
    69   35   37 1    
    70   35   97 1    
    71   36   98 1    
    72   36   99 1    
    73   36  100 1    
    74   37   38 am   BACKBONE|DICT|INTERRES
    75   37  101 1    
    76   38   39 2    
    77   38   40 1    
    78   40   41 1    
    79   40   42 1    
    80   40  102 1    
    81   41  103 1    
    82   41  104 1    
    83   41  105 1    
    84   42   43 am   BACKBONE|DICT|INTERRES
    85   42  106 1    
    86   43   44 2    
    87   43   45 1    
    88   45   46 1    
    89   45   49 1    
    90   45  107 1    
    91   46   47 1    
    92   46  108 1    
    93   46  109 1    
    94   47   48 1    
    95   48  110 1    
    96   48  111 1    
    97   49   50 am   BACKBONE|DICT|INTERRES
    98   49  112 1    
    99   50   51 2    
   100   50   52 1    
   101   52   53 1    
   102   52   54 1    
   103   52  113 1    
   104   53  114 1    
   105   53  115 1    
   106   53  116 1    
   107   54   55 am   BACKBONE|DICT|INTERRES
   108   54  117 1    
   109   55   56 2    
   110   55   57 1    
   111   57   58 1    
   112   57   59 1    
   113   57  118 1    
   114   58  119 1    
   115   58  120 1    
   116   58  121 1    
   117   59   60 am   BACKBONE|DICT|INTERRES
   118   59  122 1    
   119   60   61 2    
   120   60   62 1    
   121   62   63 1    
   122   62   64 1    
   123   62  123 1    
   124   63  124 1    
   125   63  125 1    
   126   63  126 1    
   127   64   65 am   BACKBONE|DICT|INTERRES
   128   64  127 1    
   129   65   66 2    
@<TRIPOS>SUBSTRUCTURE
     1 UNK         1 GROUP             0       ****    0 ROOT    
