@<TRIPOS>MOLECULE
3R135
127   129    1
SMALL
USER_CHARGES


@<TRIPOS>ATOM
      1 CA        -86.1466   28.8443  -76.1023 C.3       0 UNK        -0.1998 
      2 C         -84.9282   28.4831  -75.2655 C.2       0 UNK         0.4909 
      3 O         -85.0823   28.0032  -74.1417 O.2       0 UNK        -0.5240 
      4 N         -83.7238   28.7173  -75.8058 N.am      1 UNK        -0.4739 
      5 CA        -82.4234   28.4001  -75.2001 C.3       1 UNK         0.0864 
      6 C6        -82.1698   29.1913  -73.8838 C.3       11 UNK        -0.0881 
      7 S7        -80.3959   29.4605  -73.5586 S.3       11 UNK        -0.2682 
      8 C8        -80.4168   29.8117  -71.7746 C.3       11 UNK         0.0289 
      9 C9        -79.0864   29.4338  -71.1481 C.ar      11 UNK        -0.0687 
     10 C10       -78.8696   28.1191  -70.7300 C.ar      11 UNK        -0.0823 
     11 C11       -77.6379   27.7404  -70.1910 C.ar      11 UNK        -0.0830 
     12 C12       -76.6312   28.6977  -70.0326 C.ar      11 UNK        -0.1021 
     13 C13       -76.8279   30.0101  -70.4734 C.ar      11 UNK        -0.0753 
     14 C14       -78.0618   30.3761  -71.0213 C.ar      11 UNK        -0.0933 
     15 C15       -75.6951   31.0224  -70.4006 C.3       11 UNK         0.0166 
     16 S16       -74.6679   30.9711  -71.9064 S.3       11 UNK        -0.2615 
     17 C17       -73.6771   29.4643  -71.6225 C.3       11 UNK        -0.0865 
     18 CA        -72.3309   29.4937  -72.3878 C.3       10 UNK         0.0862 
     19 C         -71.3948   28.3597  -71.8994 C.2       10 UNK         0.5551 
     20 N         -70.3059   28.6951  -71.2219 N.am      10 UNK        -0.7319 
     21 O         -71.6745   27.1791  -72.0934 O.2       10 UNK        -0.5018 
     22 N         -72.5277   29.3802  -73.8378 N.am      10 UNK        -0.4509 
     23 C         -71.7013   29.8924  -74.7562 C.2       10 UNK         0.4899 
     24 O         -70.7577   30.6414  -74.4955 O.2       10 UNK        -0.4839 
     25 CA        -71.9739   29.4585  -76.2077 C.3       9 UNK         0.0222 
     26 CB        -71.0462   30.1360  -77.2386 C.3       9 UNK        -0.1966 
     27 N         -71.9391   27.9980  -76.3374 N.am      9 UNK        -0.4218 
     28 C         -70.9052   27.1729  -76.1083 C.2       9 UNK         0.5020 
     29 O         -69.7649   27.5499  -75.8344 O.2       9 UNK        -0.5274 
     30 CA        -71.1829   25.6591  -76.1827 C.3       8 UNK         0.0270 
     31 CB        -71.2940   25.0686  -74.7683 C.3       8 UNK        -0.1976 
     32 N         -72.3885   25.3136  -76.9418 N.am      8 UNK        -0.4313 
     33 C         -72.4976   25.4042  -78.2747 C.2       8 UNK         0.5041 
     34 O         -71.5740   25.7416  -79.0165 O.2       8 UNK        -0.5577 
     35 CA        -73.8734   25.0852  -78.8827 C.3       7 UNK         0.0284 
     36 CB        -74.0669   23.5666  -79.0207 C.3       7 UNK        -0.1958 
     37 N         -74.9826   25.6613  -78.1166 N.am      7 UNK        -0.4454 
     38 C         -75.2155   26.9761  -77.9850 C.2       7 UNK         0.5089 
     39 O         -74.5387   27.8503  -78.5259 O.2       7 UNK        -0.5125 
     40 CA        -76.3728   27.3912  -77.0609 C.3       6 UNK         0.0408 
     41 CB        -77.7280   27.2406  -77.7691 C.3       6 UNK        -0.1791 
     42 N         -76.3822   26.6373  -75.8071 N.am      6 UNK        -0.4762 
     43 C         -75.4232   26.7036  -74.8726 C.2       6 UNK         0.5007 
     44 O         -74.4588   27.4666  -74.9346 O.2       6 UNK        -0.5032 
     45 CA        -75.5347   25.7374  -73.6800 C.3       5 UNK         0.0783 
     46 C46       -76.4017   26.3492  -72.5608 C.3       11 UNK        -0.0857 
     47 S47       -76.1202   25.5210  -70.9567 S.3       11 UNK        -0.2512 
     48 C48       -77.3734   26.2781  -69.8603 C.3       11 UNK         0.0225 
     49 N         -76.0216   24.4181  -74.0889 N.am      5 UNK        -0.4615 
     50 C         -75.3407   23.5631  -74.8611 C.2       4 UNK         0.5053 
     51 O         -74.2173   23.7878  -75.3097 O.2       4 UNK        -0.5105 
     52 CA        -76.0579   22.2550  -75.2291 C.3       4 UNK         0.0263 
     53 CB        -76.0279   21.2658  -74.0530 C.3       4 UNK        -0.1981 
     54 N         -77.4418   22.4762  -75.6575 N.am      4 UNK        -0.4224 
     55 C         -77.7864   23.1501  -76.7639 C.2       3 UNK         0.4895 
     56 O         -76.9763   23.6456  -77.5464 O.2       3 UNK        -0.5091 
     57 CA        -79.2889   23.3309  -77.0311 C.3       3 UNK         0.0250 
     58 CB        -79.8712   22.0789  -77.7066 C.3       3 UNK        -0.1996 
     59 N         -80.0875   23.6697  -75.8471 N.am      3 UNK        -0.4254 
     60 C         -79.8827   24.7345  -75.0594 C.2       2 UNK         0.5004 
     61 O         -78.9055   25.4806  -75.1450 O.2       2 UNK        -0.5226 
     62 CA        -80.9516   25.0302  -73.9972 C.3       2 UNK         0.0269 
     63 CB        -80.3999   24.7962  -72.5815 C.3       2 UNK        -0.1926 
     64 N         -81.3985   26.4184  -74.1252 N.am      2 UNK        -0.4687 
     65 C         -82.1998   26.8687  -75.1006 C.2       1 UNK         0.5165 
     66 O         -82.7292   26.1223  -75.9294 O.2       1 UNK        -0.5079 
     67 H67       -86.7531   27.9572  -76.2833 H         1 UNK         0.0900 
     68 H68       -86.7599   29.5752  -75.5760 H         1 UNK         0.0900 
     69 H69       -85.8687   29.2674  -77.0675 H         1 UNK         0.0900 
     70 H70       -83.6760   29.0852  -76.7460 H         1 UNK         0.2959 
     71 H71       -81.6913   28.7407  -75.9344 H         1 UNK         0.1079 
     72 H72       -82.6292   30.1791  -73.9484 H         1 UNK         0.0837 
     73 H73       -82.6484   28.6980  -73.0357 H         1 UNK         0.0837 
     74 H74       -81.2176   29.2550  -71.2857 H         1 UNK         0.0685 
     75 H75       -80.6332   30.8692  -71.6151 H         1 UNK         0.0685 
     76 H76       -79.6519   27.3841  -70.8590 H         1 UNK         0.1434 
     77 H77       -75.6738   28.4022  -69.6261 H         1 UNK         0.1329 
     78 H78       -78.2160   31.3872  -71.3729 H         1 UNK         0.1335 
     79 H79       -76.1046   32.0278  -70.2909 H         1 UNK         0.0680 
     80 H80       -75.0792   30.8487  -69.5170 H         1 UNK         0.0680 
     81 H81       -74.2616   28.5885  -71.9054 H         1 UNK         0.1032 
     82 H82       -73.4937   29.3748  -70.5500 H         1 UNK         0.1032 
     83 H83       -71.8521   30.4512  -72.1707 H         1 UNK         0.0461 
     84 H84       -70.0722   29.6619  -71.0566 H         1 UNK         0.3453 
     85 H85       -69.6960   27.9672  -70.8842 H         1 UNK         0.3453 
     86 H86       -73.2467   28.7303  -74.1450 H         1 UNK         0.2984 
     87 H87       -72.9970   29.7602  -76.4378 H         1 UNK         0.0554 
     88 H88       -71.1534   31.2207  -77.2022 H         1 UNK         0.0847 
     89 H89       -71.2864   29.8196  -78.2536 H         1 UNK         0.0847 
     90 H90       -69.9955   29.9091  -77.0563 H         1 UNK         0.0847 
     91 H91       -72.8417   27.5663  -76.4921 H         1 UNK         0.3141 
     92 H92       -70.3266   25.1958  -76.6772 H         1 UNK         0.0743 
     93 H93       -70.4059   25.2944  -74.1763 H         1 UNK         0.0784 
     94 H94       -72.1525   25.4749  -74.2323 H         1 UNK         0.0784 
     95 H95       -71.3992   23.9840  -74.7965 H         1 UNK         0.0784 
     96 H96       -73.1732   24.9441  -76.4082 H         1 UNK         0.3213 
     97 H97       -73.9001   25.5219  -79.8834 H         1 UNK         0.0855 
     98 H98       -74.0955   23.0723  -78.0489 H         1 UNK         0.0814 
     99 H99       -73.2533   23.1186  -79.5927 H         1 UNK         0.0814 
    100 H100      -74.9959   23.3321  -79.5407 H         1 UNK         0.0814 
    101 H101      -75.6270   25.0038  -77.6831 H         1 UNK         0.3105 
    102 H102      -76.2390   28.4459  -76.8112 H         1 UNK         0.0547 
    103 H103      -77.9317   26.2040  -78.0371 H         1 UNK         0.0837 
    104 H104      -77.7552   27.8274  -78.6880 H         1 UNK         0.0837 
    105 H105      -78.5455   27.5877  -77.1367 H         1 UNK         0.0837 
    106 H106      -77.1876   26.0369  -75.6383 H         1 UNK         0.3020 
    107 H107      -74.5190   25.6116  -73.2962 H         1 UNK         0.1245 
    108 H108      -77.4596   26.3079  -72.8217 H         1 UNK         0.0781 
    109 H109      -76.1652   27.4065  -72.4377 H         1 UNK         0.0781 
    110 H110      -77.0397   26.1937  -68.8253 H         1 UNK         0.0836 
    111 H111      -78.2928   25.6949  -69.9320 H         1 UNK         0.0836 
    112 H112      -76.9563   24.1754  -73.7978 H         1 UNK         0.3022 
    113 H113      -75.5164   21.8063  -76.0649 H         1 UNK         0.0747 
    114 H114      -76.4561   20.3033  -74.3338 H         1 UNK         0.0793 
    115 H115      -75.0033   21.0798  -73.7276 H         1 UNK         0.0793 
    116 H116      -76.5804   21.6406  -73.1904 H         1 UNK         0.0793 
    117 H117      -78.1748   22.1068  -75.0698 H         1 UNK         0.3047 
    118 H118      -79.3895   24.1646  -77.7292 H         1 UNK         0.0822 
    119 H119      -80.9028   22.2401  -78.0200 H         1 UNK         0.0807 
    120 H120      -79.8526   21.2136  -77.0429 H         1 UNK         0.0807 
    121 H121      -79.3020   21.8168  -78.5998 H         1 UNK         0.0807 
    122 H122      -80.9153   23.1109  -75.6960 H         1 UNK         0.2946 
    123 H123      -81.8089   24.3700  -74.1483 H         1 UNK         0.1144 
    124 H124      -81.1606   24.9855  -71.8239 H         1 UNK         0.0793 
    125 H125      -79.5479   25.4398  -72.3668 H         1 UNK         0.0793 
    126 H126      -80.0683   23.7646  -72.4566 H         1 UNK         0.0793 
    127 H127      -80.9392   27.1022  -73.5389 H         1 UNK         0.2896 
@<TRIPOS>BOND
     1    1    2 1    
     2    1   67 1    
     3    1   68 1    
     4    1   69 1    
     5    2    3 2    
     6    2    4 am   BACKBONE|DICT|INTERRES
     7    4    5 1    
     8    4   70 1    
     9    5    6 1    
    10    5   65 1    
    11    5   71 1    
    12    6    7 1    
    13    6   72 1    
    14    6   73 1    
    15    7    8 1    
    16    8    9 1    
    17    8   74 1    
    18    8   75 1    
    19    9   10 ar   
    20    9   14 ar   
    21   10   11 ar   
    22   10   76 1    
    23   11   12 ar   
    24   11   48 1    
    25   12   13 ar   
    26   12   77 1    
    27   13   14 ar   
    28   13   15 1    
    29   14   78 1    
    30   15   16 1    
    31   15   79 1    
    32   15   80 1    
    33   16   17 1    
    34   17   18 1    
    35   17   81 1    
    36   17   82 1    
    37   18   19 1    
    38   18   22 1    
    39   18   83 1    
    40   19   20 am   BACKBONE|DICT|INTERRES
    41   19   21 2    
    42   20   84 1    
    43   20   85 1    
    44   22   23 am   BACKBONE|DICT|INTERRES
    45   22   86 1    
    46   23   24 2    
    47   23   25 1    
    48   25   26 1    
    49   25   27 1    
    50   25   87 1    
    51   26   88 1    
    52   26   89 1    
    53   26   90 1    
    54   27   28 am   BACKBONE|DICT|INTERRES
    55   27   91 1    
    56   28   29 2    
    57   28   30 1    
    58   30   31 1    
    59   30   32 1    
    60   30   92 1    
    61   31   93 1    
    62   31   94 1    
    63   31   95 1    
    64   32   33 am   BACKBONE|DICT|INTERRES
    65   32   96 1    
    66   33   34 2    
    67   33   35 1    
    68   35   36 1    
    69   35   37 1    
    70   35   97 1    
    71   36   98 1    
    72   36   99 1    
    73   36  100 1    
    74   37   38 am   BACKBONE|DICT|INTERRES
    75   37  101 1    
    76   38   39 2    
    77   38   40 1    
    78   40   41 1    
    79   40   42 1    
    80   40  102 1    
    81   41  103 1    
    82   41  104 1    
    83   41  105 1    
    84   42   43 am   BACKBONE|DICT|INTERRES
    85   42  106 1    
    86   43   44 2    
    87   43   45 1    
    88   45   46 1    
    89   45   49 1    
    90   45  107 1    
    91   46   47 1    
    92   46  108 1    
    93   46  109 1    
    94   47   48 1    
    95   48  110 1    
    96   48  111 1    
    97   49   50 am   BACKBONE|DICT|INTERRES
    98   49  112 1    
    99   50   51 2    
   100   50   52 1    
   101   52   53 1    
   102   52   54 1    
   103   52  113 1    
   104   53  114 1    
   105   53  115 1    
   106   53  116 1    
   107   54   55 am   BACKBONE|DICT|INTERRES
   108   54  117 1    
   109   55   56 2    
   110   55   57 1    
   111   57   58 1    
   112   57   59 1    
   113   57  118 1    
   114   58  119 1    
   115   58  120 1    
   116   58  121 1    
   117   59   60 am   BACKBONE|DICT|INTERRES
   118   59  122 1    
   119   60   61 2    
   120   60   62 1    
   121   62   63 1    
   122   62   64 1    
   123   62  123 1    
   124   63  124 1    
   125   63  125 1    
   126   63  126 1    
   127   64   65 am   BACKBONE|DICT|INTERRES
   128   64  127 1    
   129   65   66 2    
@<TRIPOS>SUBSTRUCTURE
     1 UNK         1 GROUP             0       ****    0 ROOT    
