@<TRIPOS>MOLECULE
3R135
127   129    1
SMALL
USER_CHARGES


@<TRIPOS>ATOM
      1 CA        -85.2035   28.9343  -72.6919 C.3       0 UNK        -0.1998 
      2 C         -83.7408   28.5163  -72.6953 C.2       0 UNK         0.4909 
      3 O         -82.8580   29.3739  -72.7179 O.2       0 UNK        -0.5240 
      4 N         -83.4765   27.2065  -72.6756 N.am      1 UNK        -0.4739 
      5 CA        -82.1414   26.6156  -72.7108 C.3       1 UNK         0.0864 
      6 C6        -81.5058   26.5447  -71.2939 C.3       11 UNK        -0.0881 
      7 S7        -79.6989   26.2504  -71.2933 S.3       11 UNK        -0.2682 
      8 C8        -79.0378   27.6606  -70.3261 C.3       11 UNK         0.0289 
      9 C9        -78.5470   28.8234  -71.1873 C.ar      11 UNK        -0.0687 
     10 C10       -79.2694   29.2355  -72.3086 C.ar      11 UNK        -0.0823 
     11 C11       -78.7947   30.2522  -73.1355 C.ar      11 UNK        -0.0830 
     12 C12       -77.6221   30.9266  -72.7925 C.ar      11 UNK        -0.1021 
     13 C13       -76.9041   30.5584  -71.6516 C.ar      11 UNK        -0.0753 
     14 C14       -77.3633   29.4977  -70.8597 C.ar      11 UNK        -0.0933 
     15 C15       -75.6385   31.3197  -71.2842 C.3       11 UNK         0.0166 
     16 S16       -74.2543   30.9158  -72.3957 S.3       11 UNK        -0.2615 
     17 C17       -73.8079   29.2579  -71.7867 C.3       11 UNK        -0.0865 
     18 CA        -72.4353   28.7716  -72.3245 C.3       10 UNK         0.0862 
     19 C         -71.9301   27.4935  -71.5877 C.2       10 UNK         0.5551 
     20 N         -71.3342   26.5175  -72.2632 N.am      10 UNK        -0.7319 
     21 O         -72.0556   27.3922  -70.3696 O.2       10 UNK        -0.5018 
     22 N         -72.4292   28.6475  -73.7933 N.am      10 UNK        -0.4509 
     23 C         -71.3768   28.9176  -74.5749 C.2       10 UNK         0.4899 
     24 O         -70.3156   29.3899  -74.1628 O.2       10 UNK        -0.4839 
     25 CA        -71.5370   28.5549  -76.0627 C.3       9 UNK         0.0222 
     26 CB        -70.2813   28.8601  -76.9062 C.3       9 UNK        -0.1966 
     27 N         -71.9585   27.1608  -76.2404 N.am      9 UNK        -0.4218 
     28 C         -71.3212   26.0492  -75.8404 C.2       9 UNK         0.5020 
     29 O         -70.2374   26.0491  -75.2561 O.2       9 UNK        -0.5274 
     30 CA        -72.0247   24.7028  -76.0907 C.3       8 UNK         0.0270 
     31 CB        -72.6585   24.1998  -74.7868 C.3       8 UNK        -0.1976 
     32 N         -73.0548   24.7782  -77.1303 N.am      8 UNK        -0.4313 
     33 C         -72.7964   24.8223  -78.4439 C.2       8 UNK         0.5041 
     34 O         -71.6697   24.6997  -78.9265 O.2       8 UNK        -0.5577 
     35 CA        -73.9888   25.1019  -79.3720 C.3       7 UNK         0.0284 
     36 CB        -74.8313   23.8400  -79.6221 C.3       7 UNK        -0.1958 
     37 N         -74.8270   26.1992  -78.8726 N.am      7 UNK        -0.4454 
     38 C         -74.4506   27.4861  -78.9179 C.2       7 UNK         0.5089 
     39 O         -73.3665   27.8638  -79.3621 O.2       7 UNK        -0.5125 
     40 CA        -75.4380   28.5445  -78.4042 C.3       6 UNK         0.0408 
     41 CB        -76.2927   29.0813  -79.5631 C.3       6 UNK        -0.1791 
     42 N         -76.3220   28.0959  -77.3279 N.am      6 UNK        -0.4762 
     43 C         -75.9441   27.8828  -76.0598 C.2       6 UNK         0.5007 
     44 O         -74.7634   27.8628  -75.7080 O.2       6 UNK        -0.5032 
     45 CA        -77.0675   27.7021  -75.0073 C.3       5 UNK         0.0783 
     46 C46       -78.4881   28.1255  -75.4922 C.3       11 UNK        -0.0857 
     47 S47       -78.6420   29.9125  -75.8718 S.3       11 UNK        -0.2512 
     48 C48       -79.5279   30.5780  -74.4247 C.3       11 UNK         0.0225 
     49 N         -77.0687   26.3197  -74.5244 N.am      5 UNK        -0.4615 
     50 C         -76.1793   25.7921  -73.6673 C.2       4 UNK         0.5053 
     51 O         -75.3410   26.4543  -73.0612 O.2       4 UNK        -0.5105 
     52 CA        -76.1941   24.2642  -73.4407 C.3       4 UNK         0.0263 
     53 CB        -76.7949   23.9224  -72.0679 C.3       4 UNK        -0.1981 
     54 N         -76.8975   23.4931  -74.4654 N.am      4 UNK        -0.4224 
     55 C         -76.6440   23.4914  -75.7822 C.2       3 UNK         0.4895 
     56 O         -75.6877   24.0693  -76.2985 O.2       3 UNK        -0.5091 
     57 CA        -77.6918   22.7972  -76.6776 C.3       3 UNK         0.0250 
     58 CB        -77.2402   21.3704  -77.0251 C.3       3 UNK        -0.1996 
     59 N         -79.0382   22.7582  -76.0803 N.am      3 UNK        -0.4254 
     60 C         -79.7306   23.8448  -75.7035 C.2       2 UNK         0.5004 
     61 O         -79.3385   24.9955  -75.9195 O.2       2 UNK        -0.5226 
     62 CA        -81.0055   23.6348  -74.8685 C.3       2 UNK         0.0269 
     63 CB        -80.9509   22.3772  -73.9716 C.3       2 UNK        -0.1926 
     64 N         -81.1635   24.8364  -74.0537 N.am      2 UNK        -0.4687 
     65 C         -82.2527   25.2455  -73.4013 C.2       1 UNK         0.5165 
     66 O         -83.3086   24.6081  -73.3458 O.2       1 UNK        -0.5079 
     67 H67       -85.8729   28.0747  -72.6661 H         1 UNK         0.0900 
     68 H68       -85.4298   29.5144  -73.5861 H         1 UNK         0.0900 
     69 H69       -85.4138   29.5542  -71.8208 H         1 UNK         0.0900 
     70 H70       -84.2253   26.5246  -72.7074 H         1 UNK         0.2959 
     71 H71       -81.5245   27.2374  -73.3609 H         1 UNK         0.1079 
     72 H72       -81.6986   27.4795  -70.7659 H         1 UNK         0.0837 
     73 H73       -81.9866   25.7692  -70.6947 H         1 UNK         0.0837 
     74 H74       -79.7832   28.0220  -69.6172 H         1 UNK         0.0685 
     75 H75       -78.2104   27.2796  -69.7257 H         1 UNK         0.0685 
     76 H76       -80.1921   28.7421  -72.5621 H         1 UNK         0.1434 
     77 H77       -77.2541   31.7222  -73.4263 H         1 UNK         0.1329 
     78 H78       -76.7999   29.2002  -69.9859 H         1 UNK         0.1335 
     79 H79       -75.3516   31.1274  -70.2492 H         1 UNK         0.0680 
     80 H80       -75.8362   32.3907  -71.3490 H         1 UNK         0.0680 
     81 H81       -74.6028   28.5647  -72.0535 H         1 UNK         0.1032 
     82 H82       -73.7964   29.2977  -70.6961 H         1 UNK         0.1032 
     83 H83       -71.7133   29.5421  -72.0481 H         1 UNK         0.0461 
     84 H84       -71.0057   25.7074  -71.7629 H         1 UNK         0.3453 
     85 H85       -71.1560   26.6066  -73.2531 H         1 UNK         0.3453 
     86 H86       -73.2640   28.2536  -74.2152 H         1 UNK         0.2984 
     87 H87       -72.3495   29.1732  -76.4473 H         1 UNK         0.0554 
     88 H88       -70.4458   28.6224  -77.9573 H         1 UNK         0.0847 
     89 H89       -69.4140   28.2936  -76.5657 H         1 UNK         0.0847 
     90 H90       -70.0214   29.9177  -76.8493 H         1 UNK         0.0847 
     91 H91       -72.8907   27.0467  -76.6177 H         1 UNK         0.3141 
     92 H92       -71.2671   23.9814  -76.4040 H         1 UNK         0.0743 
     93 H93       -73.3396   24.9431  -74.3729 H         1 UNK         0.0784 
     94 H94       -73.2119   23.2730  -74.9394 H         1 UNK         0.0784 
     95 H95       -71.8957   24.0040  -74.0322 H         1 UNK         0.0784 
     96 H96       -74.0258   24.7828  -76.8217 H         1 UNK         0.3213 
     97 H97       -73.5796   25.4090  -80.3375 H         1 UNK         0.0855 
     98 H98       -75.2745   23.4482  -78.7094 H         1 UNK         0.0814 
     99 H99       -74.2168   23.0450  -80.0467 H         1 UNK         0.0814 
    100 H100      -75.6378   24.0357  -80.3287 H         1 UNK         0.0814 
    101 H101      -75.7192   25.9630  -78.4622 H         1 UNK         0.3105 
    102 H102      -74.8446   29.3756  -78.0163 H         1 UNK         0.0547 
    103 H103      -75.6635   29.4572  -80.3713 H         1 UNK         0.0837 
    104 H104      -76.9356   28.3075  -79.9845 H         1 UNK         0.0837 
    105 H105      -76.9270   29.9070  -79.2398 H         1 UNK         0.0837 
    106 H106      -77.3122   28.1108  -77.5270 H         1 UNK         0.3020 
    107 H107      -76.8013   28.3454  -74.1649 H         1 UNK         0.1245 
    108 H108      -79.2280   27.8647  -74.7354 H         1 UNK         0.0781 
    109 H109      -78.7861   27.5589  -76.3756 H         1 UNK         0.0781 
    110 H110      -80.5443   30.1802  -74.4084 H         1 UNK         0.0836 
    111 H111      -79.6238   31.6597  -74.5290 H         1 UNK         0.0836 
    112 H112      -77.7221   25.6990  -74.9898 H         1 UNK         0.3022 
    113 H113      -75.1576   23.9284  -73.4384 H         1 UNK         0.0747 
    114 H114      -76.6372   22.8734  -71.8169 H         1 UNK         0.0793 
    115 H115      -76.3345   24.5155  -71.2761 H         1 UNK         0.0793 
    116 H116      -77.8669   24.1149  -72.0392 H         1 UNK         0.0793 
    117 H117      -77.7040   22.9757  -74.1508 H         1 UNK         0.3047 
    118 H118      -77.7570   23.3736  -77.6029 H         1 UNK         0.0822 
    119 H119      -77.9212   20.9001  -77.7347 H         1 UNK         0.0807 
    120 H120      -77.1852   20.7360  -76.1396 H         1 UNK         0.0807 
    121 H121      -76.2504   21.3746  -77.4841 H         1 UNK         0.0807 
    122 H122      -79.4175   21.8448  -75.8750 H         1 UNK         0.2946 
    123 H123      -81.8483   23.5591  -75.5588 H         1 UNK         0.1144 
    124 H124      -80.8995   21.4630  -74.5636 H         1 UNK         0.0793 
    125 H125      -81.8428   22.2918  -73.3509 H         1 UNK         0.0793 
    126 H126      -80.0885   22.3940  -73.3040 H         1 UNK         0.0793 
    127 H127      -80.3575   25.4480  -74.0918 H         1 UNK         0.2896 
@<TRIPOS>BOND
     1    1    2 1    
     2    1   67 1    
     3    1   68 1    
     4    1   69 1    
     5    2    3 2    
     6    2    4 am   BACKBONE|DICT|INTERRES
     7    4    5 1    
     8    4   70 1    
     9    5    6 1    
    10    5   65 1    
    11    5   71 1    
    12    6    7 1    
    13    6   72 1    
    14    6   73 1    
    15    7    8 1    
    16    8    9 1    
    17    8   74 1    
    18    8   75 1    
    19    9   10 ar   
    20    9   14 ar   
    21   10   11 ar   
    22   10   76 1    
    23   11   12 ar   
    24   11   48 1    
    25   12   13 ar   
    26   12   77 1    
    27   13   14 ar   
    28   13   15 1    
    29   14   78 1    
    30   15   16 1    
    31   15   79 1    
    32   15   80 1    
    33   16   17 1    
    34   17   18 1    
    35   17   81 1    
    36   17   82 1    
    37   18   19 1    
    38   18   22 1    
    39   18   83 1    
    40   19   20 am   BACKBONE|DICT|INTERRES
    41   19   21 2    
    42   20   84 1    
    43   20   85 1    
    44   22   23 am   BACKBONE|DICT|INTERRES
    45   22   86 1    
    46   23   24 2    
    47   23   25 1    
    48   25   26 1    
    49   25   27 1    
    50   25   87 1    
    51   26   88 1    
    52   26   89 1    
    53   26   90 1    
    54   27   28 am   BACKBONE|DICT|INTERRES
    55   27   91 1    
    56   28   29 2    
    57   28   30 1    
    58   30   31 1    
    59   30   32 1    
    60   30   92 1    
    61   31   93 1    
    62   31   94 1    
    63   31   95 1    
    64   32   33 am   BACKBONE|DICT|INTERRES
    65   32   96 1    
    66   33   34 2    
    67   33   35 1    
    68   35   36 1    
    69   35   37 1    
    70   35   97 1    
    71   36   98 1    
    72   36   99 1    
    73   36  100 1    
    74   37   38 am   BACKBONE|DICT|INTERRES
    75   37  101 1    
    76   38   39 2    
    77   38   40 1    
    78   40   41 1    
    79   40   42 1    
    80   40  102 1    
    81   41  103 1    
    82   41  104 1    
    83   41  105 1    
    84   42   43 am   BACKBONE|DICT|INTERRES
    85   42  106 1    
    86   43   44 2    
    87   43   45 1    
    88   45   46 1    
    89   45   49 1    
    90   45  107 1    
    91   46   47 1    
    92   46  108 1    
    93   46  109 1    
    94   47   48 1    
    95   48  110 1    
    96   48  111 1    
    97   49   50 am   BACKBONE|DICT|INTERRES
    98   49  112 1    
    99   50   51 2    
   100   50   52 1    
   101   52   53 1    
   102   52   54 1    
   103   52  113 1    
   104   53  114 1    
   105   53  115 1    
   106   53  116 1    
   107   54   55 am   BACKBONE|DICT|INTERRES
   108   54  117 1    
   109   55   56 2    
   110   55   57 1    
   111   57   58 1    
   112   57   59 1    
   113   57  118 1    
   114   58  119 1    
   115   58  120 1    
   116   58  121 1    
   117   59   60 am   BACKBONE|DICT|INTERRES
   118   59  122 1    
   119   60   61 2    
   120   60   62 1    
   121   62   63 1    
   122   62   64 1    
   123   62  123 1    
   124   63  124 1    
   125   63  125 1    
   126   63  126 1    
   127   64   65 am   BACKBONE|DICT|INTERRES
   128   64  127 1    
   129   65   66 2    
@<TRIPOS>SUBSTRUCTURE
     1 UNK         1 GROUP             0       ****    0 ROOT    
