@<TRIPOS>MOLECULE
3R135
127   129    1
SMALL
USER_CHARGES


@<TRIPOS>ATOM
      1 CA        -80.4849   25.4405  -68.9526 C.3       0 UNK        -0.1998 
      2 C         -80.7592   25.3680  -70.4468 C.2       0 UNK         0.4909 
      3 O         -79.8283   25.1500  -71.2186 O.2       0 UNK        -0.5240 
      4 N         -82.0321   25.5257  -70.8401 N.am      1 UNK        -0.4739 
      5 CA        -82.6218   25.5930  -72.1932 C.3       1 UNK         0.0864 
      6 C6        -82.4714   26.9791  -72.8812 C.3       11 UNK        -0.0881 
      7 S7        -80.7781   27.4818  -73.3554 S.3       11 UNK        -0.2682 
      8 C8        -80.4924   28.8123  -72.1441 C.3       11 UNK         0.0289 
      9 C9        -79.2466   29.6234  -72.4638 C.ar      11 UNK        -0.0687 
     10 C10       -79.2483   30.4987  -73.5532 C.ar      11 UNK        -0.0823 
     11 C11       -78.1244   31.2780  -73.8430 C.ar      11 UNK        -0.0830 
     12 C12       -76.9932   31.1809  -73.0280 C.ar      11 UNK        -0.1021 
     13 C13       -76.9810   30.3148  -71.9299 C.ar      11 UNK        -0.0753 
     14 C14       -78.1108   29.5373  -71.6529 C.ar      11 UNK        -0.0933 
     15 C15       -75.7551   30.2396  -71.0319 C.3       11 UNK         0.0166 
     16 S16       -74.9385   28.6217  -71.1575 S.3       11 UNK        -0.2615 
     17 C17       -73.2664   29.0160  -70.5388 C.3       11 UNK        -0.0865 
     18 CA        -72.2492   29.2177  -71.7000 C.3       10 UNK         0.0862 
     19 C         -70.8537   29.7092  -71.2068 C.2       10 UNK         0.5551 
     20 N         -69.7589   29.3500  -71.8663 N.am      10 UNK        -0.7319 
     21 O         -70.7613   30.4540  -70.2338 O.2       10 UNK        -0.5018 
     22 N         -72.2143   28.0741  -72.6303 N.am      10 UNK        -0.4509 
     23 C         -71.8172   26.8257  -72.3457 C.2       10 UNK         0.4899 
     24 O         -71.3650   26.4779  -71.2544 O.2       10 UNK        -0.4839 
     25 CA        -71.9569   25.7735  -73.4601 C.3       9 UNK         0.0222 
     26 CB        -73.0840   24.7820  -73.1282 C.3       9 UNK        -0.1966 
     27 N         -72.2177   26.3564  -74.7779 N.am      9 UNK        -0.4218 
     28 C         -71.2872   26.8868  -75.5829 C.2       9 UNK         0.5020 
     29 O         -70.0966   26.9853  -75.2789 O.2       9 UNK        -0.5274 
     30 CA        -71.7864   27.3874  -76.9530 C.3       8 UNK         0.0270 
     31 CB        -70.6457   27.6604  -77.9562 C.3       8 UNK        -0.1976 
     32 N         -72.8001   26.4979  -77.5329 N.am      8 UNK        -0.4313 
     33 C         -72.6651   25.2043  -77.8678 C.2       8 UNK         0.5041 
     34 O         -71.6035   24.5825  -77.8084 O.2       8 UNK        -0.5577 
     35 CA        -73.9347   24.4574  -78.3216 C.3       7 UNK         0.0284 
     36 CB        -74.4140   23.5069  -77.2118 C.3       7 UNK        -0.1958 
     37 N         -75.0395   25.3459  -78.6892 N.am      7 UNK        -0.4454 
     38 C         -75.0770   26.1108  -79.7884 C.2       7 UNK         0.5089 
     39 O         -74.2114   26.1015  -80.6638 O.2       7 UNK        -0.5125 
     40 CA        -76.2651   27.0785  -79.9072 C.3       6 UNK         0.0408 
     41 CB        -77.4740   26.3770  -80.5455 C.3       6 UNK        -0.1791 
     42 N         -76.6546   27.6524  -78.6154 N.am      6 UNK        -0.4762 
     43 C         -75.9257   28.5375  -77.9177 C.2       6 UNK         0.5007 
     44 O         -74.8282   28.9594  -78.2817 O.2       6 UNK        -0.5032 
     45 CA        -76.5166   29.0004  -76.5710 C.3       5 UNK         0.0783 
     46 C46       -77.6228   30.0733  -76.7810 C.3       11 UNK        -0.0857 
     47 S47       -77.0173   31.7423  -76.3645 S.3       11 UNK        -0.2512 
     48 C48       -78.1456   32.2417  -75.0229 C.3       11 UNK         0.0225 
     49 N         -76.9828   27.8658  -75.7696 N.am      5 UNK        -0.4615 
     50 C         -76.1819   26.9274  -75.2460 C.2       4 UNK         0.5053 
     51 O         -74.9537   26.9348  -75.3455 O.2       4 UNK        -0.5105 
     52 CA        -76.8664   25.7547  -74.5262 C.3       4 UNK         0.0263 
     53 CB        -77.0526   26.0673  -73.0357 C.3       4 UNK        -0.1981 
     54 N         -78.1561   25.3608  -75.1013 N.am      4 UNK        -0.4224 
     55 C         -78.3483   24.9361  -76.3597 C.2       3 UNK         0.4895 
     56 O         -77.4657   24.9396  -77.2196 O.2       3 UNK        -0.5091 
     57 CA        -79.7631   24.4360  -76.7188 C.3       3 UNK         0.0250 
     58 CB        -79.7643   23.4953  -77.9424 C.3       3 UNK        -0.1996 
     59 N         -80.4723   23.8160  -75.5908 N.am      3 UNK        -0.4254 
     60 C         -80.0923   22.7559  -74.8597 C.2       2 UNK         0.5004 
     61 O         -79.0632   22.1116  -75.0695 O.2       2 UNK        -0.5226 
     62 CA        -81.0096   22.3741  -73.6787 C.3       2 UNK         0.0269 
     63 CB        -80.3730   21.3245  -72.7481 C.3       2 UNK        -0.1926 
     64 N         -81.3889   23.5400  -72.8743 N.am      2 UNK        -0.4687 
     65 C         -82.3553   24.4172  -73.1644 C.2       1 UNK         0.5165 
     66 O         -83.0464   24.3187  -74.1799 O.2       1 UNK        -0.5079 
     67 H67       -81.3902   25.6360  -68.3782 H         1 UNK         0.0900 
     68 H68       -80.0572   24.5009  -68.6042 H         1 UNK         0.0900 
     69 H69       -79.7720   26.2376  -68.7434 H         1 UNK         0.0900 
     70 H70       -82.7177   25.6478  -70.1074 H         1 UNK         0.2959 
     71 H71       -83.6898   25.4907  -71.9922 H         1 UNK         0.1079 
     72 H72       -82.9034   27.7404  -72.2305 H         1 UNK         0.0837 
     73 H73       -83.0836   27.0141  -73.7845 H         1 UNK         0.0837 
     74 H74       -81.3502   29.4864  -72.1317 H         1 UNK         0.0685 
     75 H75       -80.4262   28.3770  -71.1460 H         1 UNK         0.0685 
     76 H76       -80.1316   30.5716  -74.1732 H         1 UNK         0.1434 
     77 H77       -76.1248   31.7864  -73.2495 H         1 UNK         0.1329 
     78 H78       -78.1030   28.8679  -70.8035 H         1 UNK         0.1335 
     79 H79       -75.0444   31.0243  -71.2965 H         1 UNK         0.0680 
     80 H80       -76.0458   30.4188  -69.9958 H         1 UNK         0.0680 
     81 H81       -73.3205   29.9052  -69.9081 H         1 UNK         0.1032 
     82 H82       -72.9407   28.2074  -69.8828 H         1 UNK         0.1032 
     83 H83       -72.6217   30.0496  -72.2988 H         1 UNK         0.0461 
     84 H84       -68.8598   29.6787  -71.5512 H         1 UNK         0.3453 
     85 H85       -69.8246   28.7426  -72.6682 H         1 UNK         0.3453 
     86 H86       -72.5748   28.2530  -73.5553 H         1 UNK         0.2984 
     87 H87       -71.0185   25.2170  -73.5048 H         1 UNK         0.0554 
     88 H88       -72.9030   24.2883  -72.1725 H         1 UNK         0.0847 
     89 H89       -73.1638   24.0019  -73.8856 H         1 UNK         0.0847 
     90 H90       -74.0494   25.2823  -73.0580 H         1 UNK         0.0847 
     91 H91       -73.1909   26.3925  -75.0778 H         1 UNK         0.3141 
     92 H92       -72.2915   28.3358  -76.7634 H         1 UNK         0.0743 
     93 H93       -70.0544   26.7655  -78.1521 H         1 UNK         0.0784 
     94 H94       -71.0347   28.0212  -78.9084 H         1 UNK         0.0784 
     95 H95       -69.9647   28.4222  -77.5750 H         1 UNK         0.0784 
     96 H96       -73.7266   26.8977  -77.6079 H         1 UNK         0.3213 
     97 H97       -73.6699   23.8613  -79.1974 H         1 UNK         0.0855 
     98 H98       -74.6770   24.0513  -76.3046 H         1 UNK         0.0814 
     99 H99       -73.6363   22.7892  -76.9475 H         1 UNK         0.0814 
    100 H100      -75.2891   22.9371  -77.5254 H         1 UNK         0.0814 
    101 H101      -75.8446   25.3595  -78.0651 H         1 UNK         0.3105 
    102 H102      -75.9632   27.8981  -80.5629 H         1 UNK         0.0547 
    103 H103      -77.2156   25.9711  -81.5245 H         1 UNK         0.0837 
    104 H104      -77.8293   25.5474  -79.9339 H         1 UNK         0.0837 
    105 H105      -78.3042   27.0680  -80.6915 H         1 UNK         0.0837 
    106 H106      -77.5129   27.3085  -78.2090 H         1 UNK         0.3020 
    107 H107      -75.6906   29.4413  -76.0069 H         1 UNK         0.1245 
    108 H108      -78.5024   29.8501  -76.1775 H         1 UNK         0.0781 
    109 H109      -77.9970   30.0975  -77.8068 H         1 UNK         0.0781 
    110 H110      -79.1543   32.3384  -75.4277 H         1 UNK         0.0836 
    111 H111      -77.8623   33.2366  -74.6766 H         1 UNK         0.0836 
    112 H112      -77.9773   27.7839  -75.6203 H         1 UNK         0.3022 
    113 H113      -76.2016   24.8932  -74.6089 H         1 UNK         0.0747 
    114 H114      -77.4246   25.1991  -72.4919 H         1 UNK         0.0793 
    115 H115      -76.1087   26.3541  -72.5740 H         1 UNK         0.0793 
    116 H116      -77.7540   26.8870  -72.8781 H         1 UNK         0.0793 
    117 H117      -78.9413   25.3400  -74.4657 H         1 UNK         0.3047 
    118 H118      -80.3357   25.3254  -76.9858 H         1 UNK         0.0822 
    119 H119      -80.7722   23.1576  -78.1833 H         1 UNK         0.0807 
    120 H120      -79.1457   22.6132  -77.7735 H         1 UNK         0.0807 
    121 H121      -79.3746   23.9994  -78.8270 H         1 UNK         0.0807 
    122 H122      -81.3501   24.2523  -75.3275 H         1 UNK         0.2946 
    123 H123      -81.9112   21.9333  -74.1105 H         1 UNK         0.1144 
    124 H124      -79.4520   21.6950  -72.2959 H         1 UNK         0.0793 
    125 H125      -80.1271   20.4124  -73.2936 H         1 UNK         0.0793 
    126 H126      -81.0526   21.0439  -71.9433 H         1 UNK         0.0793 
    127 H127      -80.7783   23.7844  -72.0993 H         1 UNK         0.2896 
@<TRIPOS>BOND
     1    1    2 1    
     2    1   67 1    
     3    1   68 1    
     4    1   69 1    
     5    2    3 2    
     6    2    4 am   BACKBONE|DICT|INTERRES
     7    4    5 1    
     8    4   70 1    
     9    5    6 1    
    10    5   65 1    
    11    5   71 1    
    12    6    7 1    
    13    6   72 1    
    14    6   73 1    
    15    7    8 1    
    16    8    9 1    
    17    8   74 1    
    18    8   75 1    
    19    9   10 ar   
    20    9   14 ar   
    21   10   11 ar   
    22   10   76 1    
    23   11   12 ar   
    24   11   48 1    
    25   12   13 ar   
    26   12   77 1    
    27   13   14 ar   
    28   13   15 1    
    29   14   78 1    
    30   15   16 1    
    31   15   79 1    
    32   15   80 1    
    33   16   17 1    
    34   17   18 1    
    35   17   81 1    
    36   17   82 1    
    37   18   19 1    
    38   18   22 1    
    39   18   83 1    
    40   19   20 am   BACKBONE|DICT|INTERRES
    41   19   21 2    
    42   20   84 1    
    43   20   85 1    
    44   22   23 am   BACKBONE|DICT|INTERRES
    45   22   86 1    
    46   23   24 2    
    47   23   25 1    
    48   25   26 1    
    49   25   27 1    
    50   25   87 1    
    51   26   88 1    
    52   26   89 1    
    53   26   90 1    
    54   27   28 am   BACKBONE|DICT|INTERRES
    55   27   91 1    
    56   28   29 2    
    57   28   30 1    
    58   30   31 1    
    59   30   32 1    
    60   30   92 1    
    61   31   93 1    
    62   31   94 1    
    63   31   95 1    
    64   32   33 am   BACKBONE|DICT|INTERRES
    65   32   96 1    
    66   33   34 2    
    67   33   35 1    
    68   35   36 1    
    69   35   37 1    
    70   35   97 1    
    71   36   98 1    
    72   36   99 1    
    73   36  100 1    
    74   37   38 am   BACKBONE|DICT|INTERRES
    75   37  101 1    
    76   38   39 2    
    77   38   40 1    
    78   40   41 1    
    79   40   42 1    
    80   40  102 1    
    81   41  103 1    
    82   41  104 1    
    83   41  105 1    
    84   42   43 am   BACKBONE|DICT|INTERRES
    85   42  106 1    
    86   43   44 2    
    87   43   45 1    
    88   45   46 1    
    89   45   49 1    
    90   45  107 1    
    91   46   47 1    
    92   46  108 1    
    93   46  109 1    
    94   47   48 1    
    95   48  110 1    
    96   48  111 1    
    97   49   50 am   BACKBONE|DICT|INTERRES
    98   49  112 1    
    99   50   51 2    
   100   50   52 1    
   101   52   53 1    
   102   52   54 1    
   103   52  113 1    
   104   53  114 1    
   105   53  115 1    
   106   53  116 1    
   107   54   55 am   BACKBONE|DICT|INTERRES
   108   54  117 1    
   109   55   56 2    
   110   55   57 1    
   111   57   58 1    
   112   57   59 1    
   113   57  118 1    
   114   58  119 1    
   115   58  120 1    
   116   58  121 1    
   117   59   60 am   BACKBONE|DICT|INTERRES
   118   59  122 1    
   119   60   61 2    
   120   60   62 1    
   121   62   63 1    
   122   62   64 1    
   123   62  123 1    
   124   63  124 1    
   125   63  125 1    
   126   63  126 1    
   127   64   65 am   BACKBONE|DICT|INTERRES
   128   64  127 1    
   129   65   66 2    
@<TRIPOS>SUBSTRUCTURE
     1 UNK         1 GROUP             0       ****    0 ROOT    
