@<TRIPOS>MOLECULE
3R135
127   129    1
SMALL
USER_CHARGES


@<TRIPOS>ATOM
      1 CA        -80.9451   29.8353  -76.5432 C.3       0 UNK        -0.1998 
      2 C         -80.6293   28.8968  -75.3891 C.2       0 UNK         0.4909 
      3 O         -79.5711   28.2709  -75.3823 O.2       0 UNK        -0.5240 
      4 N         -81.5411   28.7843  -74.4156 N.am      1 UNK        -0.4739 
      5 CA        -81.4081   27.9276  -73.2309 C.3       1 UNK         0.0864 
      6 C6        -82.1212   28.5348  -71.9918 C.3       11 UNK        -0.0881 
      7 S7        -81.5617   30.2316  -71.5956 S.3       11 UNK        -0.2682 
      8 C8        -80.5568   29.9979  -70.0929 C.3       11 UNK         0.0289 
      9 C9        -79.1806   29.4318  -70.4109 C.ar      11 UNK        -0.0687 
     10 C10       -78.9386   28.0617  -70.2841 C.ar      11 UNK        -0.0823 
     11 C11       -77.6869   27.5340  -70.6096 C.ar      11 UNK        -0.0830 
     12 C12       -76.6661   28.3869  -71.0364 C.ar      11 UNK        -0.1021 
     13 C13       -76.8875   29.7618  -71.1557 C.ar      11 UNK        -0.0753 
     14 C14       -78.1503   30.2772  -70.8402 C.ar      11 UNK        -0.0933 
     15 C15       -75.7901   30.6832  -71.6812 C.3       11 UNK         0.0166 
     16 S16       -74.1579   30.3530  -70.9340 S.3       11 UNK        -0.2615 
     17 C17       -73.1453   31.6698  -71.6934 C.3       11 UNK        -0.0865 
     18 CA        -72.0204   31.1662  -72.6392 C.3       10 UNK         0.0862 
     19 C         -70.8562   30.4416  -71.8981 C.2       10 UNK         0.5551 
     20 N         -70.3070   29.3499  -72.4185 N.am      10 UNK        -0.7319 
     21 O         -70.4233   30.8912  -70.8396 O.2       10 UNK        -0.5018 
     22 N         -72.5576   30.4230  -73.7924 N.am      10 UNK        -0.4509 
     23 C         -72.1064   30.5418  -75.0468 C.2       10 UNK         0.4899 
     24 O         -71.2385   31.3480  -75.3881 O.2       10 UNK        -0.4839 
     25 CA        -72.7221   29.5861  -76.0880 C.3       9 UNK         0.0222 
     26 CB        -72.0797   29.7388  -77.4830 C.3       9 UNK        -0.1966 
     27 N         -72.7004   28.1748  -75.6827 N.am      9 UNK        -0.4218 
     28 C         -71.6408   27.4435  -75.3034 C.2       9 UNK         0.5020 
     29 O         -70.5173   27.9048  -75.0988 O.2       9 UNK        -0.5274 
     30 CA        -71.8690   25.9308  -75.1301 C.3       8 UNK         0.0270 
     31 CB        -72.4288   25.6221  -73.7317 C.3       8 UNK        -0.1976 
     32 N         -72.7444   25.3581  -76.1602 N.am      8 UNK        -0.4313 
     33 C         -72.4366   25.2715  -77.4642 C.2       8 UNK         0.5041 
     34 O         -71.3478   25.6047  -77.9340 O.2       8 UNK        -0.5577 
     35 CA        -73.5253   24.7348  -78.4123 C.3       7 UNK         0.0284 
     36 CB        -73.5513   23.1978  -78.4158 C.3       7 UNK        -0.1958 
     37 N         -74.8541   25.2573  -78.0876 N.am      7 UNK        -0.4454 
     38 C         -75.2338   26.5279  -78.2893 C.2       7 UNK         0.5089 
     39 O         -74.5476   27.3632  -78.8773 O.2       7 UNK        -0.5125 
     40 CA        -76.5945   26.9528  -77.7101 C.3       6 UNK         0.0408 
     41 CB        -77.7225   26.7126  -78.7245 C.3       6 UNK        -0.1791 
     42 N         -76.9153   26.2737  -76.4543 N.am      6 UNK        -0.4762 
     43 C         -76.2260   26.4063  -75.3123 C.2       6 UNK         0.5007 
     44 O         -75.2622   27.1596  -75.1800 O.2       6 UNK        -0.5032 
     45 CA        -76.6479   25.5051  -74.1374 C.3       5 UNK         0.0783 
     46 C46       -77.8515   26.1184  -73.4006 C.3       11 UNK        -0.0857 
     47 S47       -78.3495   25.1806  -71.9133 S.3       11 UNK        -0.2512 
     48 C48       -77.4519   26.0331  -70.5759 C.3       11 UNK         0.0225 
     49 N         -76.9207   24.1391  -74.5856 N.am      5 UNK        -0.4615 
     50 C         -75.9998   23.2924  -75.0574 C.2       4 UNK         0.5053 
     51 O         -74.8028   23.5643  -75.1376 O.2       4 UNK        -0.5105 
     52 CA        -76.5100   21.9295  -75.5539 C.3       4 UNK         0.0263 
     53 CB        -76.5948   20.9305  -74.3894 C.3       4 UNK        -0.1981 
     54 N         -77.8154   22.0257  -76.2155 N.am      4 UNK        -0.4224 
     55 C         -78.0190   22.6319  -77.3945 C.2       3 UNK         0.4895 
     56 O         -77.1190   23.1319  -78.0702 O.2       3 UNK        -0.5091 
     57 CA        -79.4794   22.7365  -77.8751 C.3       3 UNK         0.0250 
     58 CB        -79.9302   21.4235  -78.5350 C.3       3 UNK        -0.1996 
     59 N         -80.4246   23.1094  -76.8119 N.am      3 UNK        -0.4254 
     60 C         -80.3630   24.2595  -76.1262 C.2       2 UNK         0.5004 
     61 O         -79.4961   25.1125  -76.3268 O.2       2 UNK        -0.5226 
     62 CA        -81.3993   24.4841  -75.0124 C.3       2 UNK         0.0269 
     63 CB        -81.2147   23.4399  -73.8896 C.3       2 UNK        -0.1926 
     64 N         -81.2096   25.8448  -74.5047 N.am      2 UNK        -0.4687 
     65 C         -81.8992   26.4982  -73.5634 C.2       1 UNK         0.5165 
     66 O         -82.8930   26.0346  -73.0010 O.2       1 UNK        -0.5079 
     67 H67       -80.9563   29.2822  -77.4820 H         1 UNK         0.0900 
     68 H68       -81.9134   30.3205  -76.4216 H         1 UNK         0.0900 
     69 H69       -80.1827   30.6106  -76.6133 H         1 UNK         0.0900 
     70 H70       -82.4003   29.3121  -74.4746 H         1 UNK         0.2959 
     71 H71       -80.3494   27.8427  -72.9736 H         1 UNK         0.1079 
     72 H72       -81.9777   27.8942  -71.1200 H         1 UNK         0.0837 
     73 H73       -83.1994   28.5765  -72.1572 H         1 UNK         0.0837 
     74 H74       -81.0884   29.3584  -69.3865 H         1 UNK         0.0685 
     75 H75       -80.4427   30.9632  -69.5974 H         1 UNK         0.0685 
     76 H76       -79.7319   27.3987  -69.9667 H         1 UNK         0.1434 
     77 H77       -75.7045   27.9745  -71.3099 H         1 UNK         0.1329 
     78 H78       -78.3419   31.3363  -70.9469 H         1 UNK         0.1335 
     79 H79       -76.0539   31.7255  -71.4947 H         1 UNK         0.0680 
     80 H80       -75.7198   30.5640  -72.7633 H         1 UNK         0.0680 
     81 H81       -72.7208   32.2752  -70.8903 H         1 UNK         0.1032 
     82 H82       -73.7933   32.3521  -72.2454 H         1 UNK         0.1032 
     83 H83       -71.5506   32.0748  -73.0199 H         1 UNK         0.0461 
     84 H84       -69.5498   28.9031  -71.9267 H         1 UNK         0.3453 
     85 H85       -70.5899   29.0006  -73.3260 H         1 UNK         0.3453 
     86 H86       -73.2461   29.7153  -73.5808 H         1 UNK         0.2984 
     87 H87       -73.7740   29.8615  -76.1766 H         1 UNK         0.0554 
     88 H88       -72.1747   30.7613  -77.8504 H         1 UNK         0.0847 
     89 H89       -72.5589   29.0877  -78.2138 H         1 UNK         0.0847 
     90 H90       -71.0170   29.4939  -77.4663 H         1 UNK         0.0847 
     91 H91       -73.6060   27.7067  -75.6994 H         1 UNK         0.3141 
     92 H92       -70.8972   25.4406  -75.2181 H         1 UNK         0.0743 
     93 H93       -71.7554   25.9869  -72.9548 H         1 UNK         0.0784 
     94 H94       -73.3974   26.0933  -73.5674 H         1 UNK         0.0784 
     95 H95       -72.5483   24.5491  -73.5798 H         1 UNK         0.0784 
     96 H96       -73.6308   24.9732  -75.8463 H         1 UNK         0.3213 
     97 H97       -73.2742   25.0655  -79.4227 H         1 UNK         0.0855 
     98 H98       -73.7756   22.7897  -77.4309 H         1 UNK         0.0814 
     99 H99       -72.5847   22.7949  -78.7209 H         1 UNK         0.0814 
    100 H100      -74.2973   22.8156  -79.1130 H         1 UNK         0.0814 
    101 H101      -75.5147   24.6189  -77.6600 H         1 UNK         0.3105 
    102 H102      -76.5470   28.0237  -77.5021 H         1 UNK         0.0547 
    103 H103      -78.6779   27.0750  -78.3436 H         1 UNK         0.0837 
    104 H104      -77.8367   25.6536  -78.9579 H         1 UNK         0.0837 
    105 H105      -77.5247   27.2359  -79.6607 H         1 UNK         0.0837 
    106 H106      -77.7535   25.6944  -76.4523 H         1 UNK         0.3020 
    107 H107      -75.8068   25.4670  -73.4419 H         1 UNK         0.1245 
    108 H108      -78.7052   26.1390  -74.0689 H         1 UNK         0.0781 
    109 H109      -77.6691   27.1649  -73.1638 H         1 UNK         0.0781 
    110 H110      -76.3885   25.8031  -70.6590 H         1 UNK         0.0836 
    111 H111      -77.7778   25.6333  -69.6147 H         1 UNK         0.0836 
    112 H112      -77.8864   23.8507  -74.5702 H         1 UNK         0.3022 
    113 H113      -75.7876   21.5494  -76.2795 H         1 UNK         0.0747 
    114 H114      -76.8853   19.9391  -74.7374 H         1 UNK         0.0793 
    115 H115      -75.6280   20.8278  -73.8943 H         1 UNK         0.0793 
    116 H116      -77.3154   21.2469  -73.6339 H         1 UNK         0.0793 
    117 H117      -78.6093   21.6340  -75.7303 H         1 UNK         0.3047 
    118 H118      -79.5127   23.5233  -78.6321 H         1 UNK         0.0822 
    119 H119      -80.9223   21.5216  -78.9761 H         1 UNK         0.0807 
    120 H120      -79.9594   20.5985  -77.8221 H         1 UNK         0.0807 
    121 H121      -79.2488   21.1367  -79.3374 H         1 UNK         0.0807 
    122 H122      -81.1602   22.4495  -76.6025 H         1 UNK         0.2946 
    123 H123      -82.4003   24.4055  -75.4409 H         1 UNK         0.1144 
    124 H124      -80.2133   23.4806  -73.4617 H         1 UNK         0.0793 
    125 H125      -81.3680   22.4261  -74.2606 H         1 UNK         0.0793 
    126 H126      -81.9275   23.5834  -73.0783 H         1 UNK         0.0793 
    127 H127      -80.4483   26.3374  -74.9677 H         1 UNK         0.2896 
@<TRIPOS>BOND
     1    1    2 1    
     2    1   67 1    
     3    1   68 1    
     4    1   69 1    
     5    2    3 2    
     6    2    4 am   BACKBONE|DICT|INTERRES
     7    4    5 1    
     8    4   70 1    
     9    5    6 1    
    10    5   65 1    
    11    5   71 1    
    12    6    7 1    
    13    6   72 1    
    14    6   73 1    
    15    7    8 1    
    16    8    9 1    
    17    8   74 1    
    18    8   75 1    
    19    9   10 ar   
    20    9   14 ar   
    21   10   11 ar   
    22   10   76 1    
    23   11   12 ar   
    24   11   48 1    
    25   12   13 ar   
    26   12   77 1    
    27   13   14 ar   
    28   13   15 1    
    29   14   78 1    
    30   15   16 1    
    31   15   79 1    
    32   15   80 1    
    33   16   17 1    
    34   17   18 1    
    35   17   81 1    
    36   17   82 1    
    37   18   19 1    
    38   18   22 1    
    39   18   83 1    
    40   19   20 am   BACKBONE|DICT|INTERRES
    41   19   21 2    
    42   20   84 1    
    43   20   85 1    
    44   22   23 am   BACKBONE|DICT|INTERRES
    45   22   86 1    
    46   23   24 2    
    47   23   25 1    
    48   25   26 1    
    49   25   27 1    
    50   25   87 1    
    51   26   88 1    
    52   26   89 1    
    53   26   90 1    
    54   27   28 am   BACKBONE|DICT|INTERRES
    55   27   91 1    
    56   28   29 2    
    57   28   30 1    
    58   30   31 1    
    59   30   32 1    
    60   30   92 1    
    61   31   93 1    
    62   31   94 1    
    63   31   95 1    
    64   32   33 am   BACKBONE|DICT|INTERRES
    65   32   96 1    
    66   33   34 2    
    67   33   35 1    
    68   35   36 1    
    69   35   37 1    
    70   35   97 1    
    71   36   98 1    
    72   36   99 1    
    73   36  100 1    
    74   37   38 am   BACKBONE|DICT|INTERRES
    75   37  101 1    
    76   38   39 2    
    77   38   40 1    
    78   40   41 1    
    79   40   42 1    
    80   40  102 1    
    81   41  103 1    
    82   41  104 1    
    83   41  105 1    
    84   42   43 am   BACKBONE|DICT|INTERRES
    85   42  106 1    
    86   43   44 2    
    87   43   45 1    
    88   45   46 1    
    89   45   49 1    
    90   45  107 1    
    91   46   47 1    
    92   46  108 1    
    93   46  109 1    
    94   47   48 1    
    95   48  110 1    
    96   48  111 1    
    97   49   50 am   BACKBONE|DICT|INTERRES
    98   49  112 1    
    99   50   51 2    
   100   50   52 1    
   101   52   53 1    
   102   52   54 1    
   103   52  113 1    
   104   53  114 1    
   105   53  115 1    
   106   53  116 1    
   107   54   55 am   BACKBONE|DICT|INTERRES
   108   54  117 1    
   109   55   56 2    
   110   55   57 1    
   111   57   58 1    
   112   57   59 1    
   113   57  118 1    
   114   58  119 1    
   115   58  120 1    
   116   58  121 1    
   117   59   60 am   BACKBONE|DICT|INTERRES
   118   59  122 1    
   119   60   61 2    
   120   60   62 1    
   121   62   63 1    
   122   62   64 1    
   123   62  123 1    
   124   63  124 1    
   125   63  125 1    
   126   63  126 1    
   127   64   65 am   BACKBONE|DICT|INTERRES
   128   64  127 1    
   129   65   66 2    
@<TRIPOS>SUBSTRUCTURE
     1 UNK         1 GROUP             0       ****    0 ROOT    
