@<TRIPOS>MOLECULE
3R135
127   129    1
SMALL
USER_CHARGES


@<TRIPOS>ATOM
      1 CA        -82.1144   23.3550  -71.4398 C.3       0 UNK        -0.1998 
      2 C         -81.5343   24.3986  -72.3806 C.2       0 UNK         0.4909 
      3 O         -80.4860   24.1584  -72.9800 O.2       0 UNK        -0.5240 
      4 N         -82.2188   25.5430  -72.5281 N.am      1 UNK        -0.4739 
      5 CA        -81.8250   26.7147  -73.3298 C.3       1 UNK         0.0864 
      6 C6        -80.6971   27.5437  -72.6727 C.3       11 UNK        -0.0881 
      7 S7        -81.1637   28.2460  -71.0544 S.3       11 UNK        -0.2682 
      8 C8        -79.5640   28.2478  -70.1655 C.3       11 UNK         0.0289 
      9 C9        -78.3830   28.8017  -70.9654 C.ar      11 UNK        -0.0687 
     10 C10       -78.5375   29.8478  -71.8830 C.ar      11 UNK        -0.0823 
     11 C11       -77.4650   30.2753  -72.6709 C.ar      11 UNK        -0.0830 
     12 C12       -76.2073   29.6929  -72.4896 C.ar      11 UNK        -0.1021 
     13 C13       -76.0270   28.6765  -71.5459 C.ar      11 UNK        -0.0753 
     14 C14       -77.1173   28.2350  -70.7921 C.ar      11 UNK        -0.0933 
     15 C15       -74.6712   28.0107  -71.3751 C.3       11 UNK         0.0166 
     16 S16       -73.6935   28.7474  -70.0257 S.3       11 UNK        -0.2615 
     17 C17       -73.0103   30.2432  -70.8254 C.3       11 UNK        -0.0865 
     18 CA        -71.5105   30.1238  -71.2337 C.3       10 UNK         0.0862 
     19 C         -70.5191   30.2563  -70.0407 C.2       10 UNK         0.5551 
     20 N         -69.3848   29.5640  -70.0414 N.am      10 UNK        -0.7319 
     21 O         -70.7628   31.0174  -69.1074 O.2       10 UNK        -0.5018 
     22 N         -71.2359   28.9627  -72.0971 N.am      10 UNK        -0.4509 
     23 C         -71.6670   28.8177  -73.3533 C.2       10 UNK         0.4899 
     24 O         -72.3334   29.6706  -73.9453 O.2       10 UNK        -0.4839 
     25 CA        -71.3159   27.4830  -74.0421 C.3       9 UNK         0.0222 
     26 CB        -71.8207   26.2633  -73.2468 C.3       9 UNK        -0.1966 
     27 N         -71.8840   27.4214  -75.3879 N.am      9 UNK        -0.4218 
     28 C         -71.3395   27.9753  -76.4793 C.2       9 UNK         0.5020 
     29 O         -70.2255   28.5044  -76.4949 O.2       9 UNK        -0.5274 
     30 CA        -72.1976   27.9488  -77.7595 C.3       8 UNK         0.0270 
     31 CB        -71.3714   28.1336  -79.0510 C.3       8 UNK        -0.1976 
     32 N         -73.0716   26.7721  -77.8494 N.am      8 UNK        -0.4313 
     33 C         -72.7019   25.4849  -77.9580 C.2       8 UNK         0.5041 
     34 O         -71.5284   25.1138  -78.0092 O.2       8 UNK        -0.5577 
     35 CA        -73.8130   24.4142  -78.0022 C.3       7 UNK         0.0284 
     36 CB        -73.7470   23.5216  -76.7506 C.3       7 UNK        -0.1958 
     37 N         -75.1689   24.9563  -78.1218 N.am      7 UNK        -0.4454 
     38 C         -75.6733   25.5624  -79.2051 C.2       7 UNK         0.5089 
     39 O         -75.0770   25.6566  -80.2778 O.2       7 UNK        -0.5125 
     40 CA        -77.0547   26.2241  -79.0474 C.3       6 UNK         0.0408 
     41 CB        -78.1669   25.2488  -79.4556 C.3       6 UNK        -0.1791 
     42 N         -77.3130   26.7298  -77.6926 N.am      6 UNK        -0.4762 
     43 C         -76.6079   27.6986  -77.0853 C.2       6 UNK         0.5007 
     44 O         -75.6517   28.2708  -77.6090 O.2       6 UNK        -0.5032 
     45 CA        -76.9931   28.0372  -75.6322 C.3       5 UNK         0.0783 
     46 C46       -78.0757   29.1455  -75.5506 C.3       11 UNK        -0.0857 
     47 S47       -77.3049   30.8000  -75.4336 S.3       11 UNK        -0.2512 
     48 C48       -77.6871   31.3495  -73.7308 C.3       11 UNK         0.0225 
     49 N         -77.3520   26.8235  -74.8911 N.am      5 UNK        -0.4615 
     50 C         -76.4270   25.9750  -74.4176 C.2       4 UNK         0.5053 
     51 O         -75.2140   26.1620  -74.5261 O.2       4 UNK        -0.5105 
     52 CA        -76.9184   24.6866  -73.7423 C.3       4 UNK         0.0263 
     53 CB        -77.2206   24.9166  -72.2543 C.3       4 UNK        -0.1981 
     54 N         -78.0803   24.0791  -74.3934 N.am      4 UNK        -0.4224 
     55 C         -78.0516   23.5125  -75.6077 C.2       3 UNK         0.4895 
     56 O         -77.0888   23.5818  -76.3704 O.2       3 UNK        -0.5091 
     57 CA        -79.2983   22.7333  -76.0428 C.3       3 UNK         0.0250 
     58 CB        -79.5068   21.4876  -75.1640 C.3       3 UNK        -0.1996 
     59 N         -80.4814   23.5862  -75.9736 N.am      3 UNK        -0.4254 
     60 C         -81.1195   24.0918  -77.0377 C.2       2 UNK         0.5004 
     61 O         -80.8311   23.8152  -78.2018 O.2       2 UNK        -0.5226 
     62 CA        -82.2865   25.0662  -76.7839 C.3       2 UNK         0.0269 
     63 CB        -83.6246   24.4176  -77.1770 C.3       2 UNK        -0.1926 
     64 N         -82.3894   25.5588  -75.4073 N.am      2 UNK        -0.4687 
     65 C         -81.4983   26.3514  -74.7962 C.2       1 UNK         0.5165 
     66 O         -80.4503   26.7354  -75.3239 O.2       1 UNK        -0.5079 
     67 H67       -81.4046   23.1375  -70.6423 H         1 UNK         0.0900 
     68 H68       -83.0464   23.6884  -70.9841 H         1 UNK         0.0900 
     69 H69       -82.3113   22.4308  -71.9823 H         1 UNK         0.0900 
     70 H70       -83.0778   25.6596  -72.0085 H         1 UNK         0.2959 
     71 H71       -82.7059   27.3566  -73.3859 H         1 UNK         0.1079 
     72 H72       -79.7955   26.9409  -72.5702 H         1 UNK         0.0837 
     73 H73       -80.4365   28.3867  -73.3124 H         1 UNK         0.0837 
     74 H74       -79.6717   28.8295  -69.2495 H         1 UNK         0.0685 
     75 H75       -79.3556   27.2215  -69.8585 H         1 UNK         0.0685 
     76 H76       -79.5089   30.3032  -72.0158 H         1 UNK         0.1434 
     77 H77       -75.3774   30.0151  -73.1037 H         1 UNK         0.1329 
     78 H78       -76.9804   27.4330  -70.0795 H         1 UNK         0.1335 
     79 H79       -74.8049   26.9503  -71.1610 H         1 UNK         0.0680 
     80 H80       -74.1219   28.0570  -72.3127 H         1 UNK         0.0680 
     81 H81       -73.6036   30.4854  -71.7055 H         1 UNK         0.1032 
     82 H82       -73.1617   31.0899  -70.1537 H         1 UNK         0.1032 
     83 H83       -71.2864   31.0060  -71.8364 H         1 UNK         0.0461 
     84 H84       -68.7535   29.6688  -69.2623 H         1 UNK         0.3453 
     85 H85       -69.1130   28.9972  -70.8275 H         1 UNK         0.3453 
     86 H86       -70.7269   28.2106  -71.6566 H         1 UNK         0.2984 
     87 H87       -70.2278   27.4211  -74.1092 H         1 UNK         0.0554 
     88 H88       -71.4018   26.2313  -72.2408 H         1 UNK         0.0847 
     89 H89       -71.5350   25.3323  -73.7370 H         1 UNK         0.0847 
     90 H90       -72.9058   26.2600  -73.1492 H         1 UNK         0.0847 
     91 H91       -72.8201   27.0472  -75.4604 H         1 UNK         0.3141 
     92 H92       -72.8668   28.8069  -77.6800 H         1 UNK         0.0743 
     93 H93       -70.8466   29.0897  -79.0456 H         1 UNK         0.0784 
     94 H94       -70.6195   27.3526  -79.1674 H         1 UNK         0.0784 
     95 H95       -72.0094   28.1206  -79.9347 H         1 UNK         0.0784 
     96 H96       -74.0641   26.9822  -77.8137 H         1 UNK         0.3213 
     97 H97       -73.6217   23.7909  -78.8781 H         1 UNK         0.0855 
     98 H98       -73.9480   24.0883  -75.8408 H         1 UNK         0.0814 
     99 H99       -72.7609   23.0683  -76.6414 H         1 UNK         0.0814 
    100 H100      -74.4705   22.7080  -76.8049 H         1 UNK         0.0814 
    101 H101      -75.7771   24.8350  -77.3178 H         1 UNK         0.3105 
    102 H102      -77.0876   27.0784  -79.7267 H         1 UNK         0.0547 
    103 H103      -79.1475   25.7231  -79.4173 H         1 UNK         0.0837 
    104 H104      -78.0201   24.8944  -80.4766 H         1 UNK         0.0837 
    105 H105      -78.1916   24.3711  -78.8089 H         1 UNK         0.0837 
    106 H106      -78.0654   26.2934  -77.1790 H         1 UNK         0.3020 
    107 H107      -76.0856   28.4275  -75.1640 H         1 UNK         0.1245 
    108 H108      -78.7131   28.9948  -74.6815 H         1 UNK         0.0781 
    109 H109      -78.7534   29.1209  -76.4063 H         1 UNK         0.0781 
    110 H110      -78.7196   31.7019  -73.7108 H         1 UNK         0.0836 
    111 H111      -77.0676   32.2153  -73.4934 H         1 UNK         0.0836 
    112 H112      -78.3382   26.6085  -74.8019 H         1 UNK         0.3022 
    113 H113      -76.1017   23.9637  -73.8031 H         1 UNK         0.0747 
    114 H114      -76.3377   25.2811  -71.7304 H         1 UNK         0.0793 
    115 H115      -78.0136   25.6480  -72.1087 H         1 UNK         0.0793 
    116 H116      -77.5269   23.9922  -71.7644 H         1 UNK         0.0793 
    117 H117      -78.9346   24.0229  -73.8389 H         1 UNK         0.3047 
    118 H118      -79.1295   22.3914  -77.0663 H         1 UNK         0.0822 
    119 H119      -78.6236   20.8475  -75.1791 H         1 UNK         0.0807 
    120 H120      -80.3450   20.8904  -75.5234 H         1 UNK         0.0807 
    121 H121      -79.7060   21.7458  -74.1233 H         1 UNK         0.0807 
    122 H122      -80.7643   23.8892  -75.0487 H         1 UNK         0.2946 
    123 H123      -82.1182   25.9285  -77.4332 H         1 UNK         0.1144 
    124 H124      -84.4500   25.1246  -77.0914 H         1 UNK         0.0793 
    125 H125      -83.8532   23.5541  -76.5509 H         1 UNK         0.0793 
    126 H126      -83.6045   24.0728  -78.2119 H         1 UNK         0.0793 
    127 H127      -83.1992   25.2617  -74.8814 H         1 UNK         0.2896 
@<TRIPOS>BOND
     1    1    2 1    
     2    1   67 1    
     3    1   68 1    
     4    1   69 1    
     5    2    3 2    
     6    2    4 am   BACKBONE|DICT|INTERRES
     7    4    5 1    
     8    4   70 1    
     9    5    6 1    
    10    5   65 1    
    11    5   71 1    
    12    6    7 1    
    13    6   72 1    
    14    6   73 1    
    15    7    8 1    
    16    8    9 1    
    17    8   74 1    
    18    8   75 1    
    19    9   10 ar   
    20    9   14 ar   
    21   10   11 ar   
    22   10   76 1    
    23   11   12 ar   
    24   11   48 1    
    25   12   13 ar   
    26   12   77 1    
    27   13   14 ar   
    28   13   15 1    
    29   14   78 1    
    30   15   16 1    
    31   15   79 1    
    32   15   80 1    
    33   16   17 1    
    34   17   18 1    
    35   17   81 1    
    36   17   82 1    
    37   18   19 1    
    38   18   22 1    
    39   18   83 1    
    40   19   20 am   BACKBONE|DICT|INTERRES
    41   19   21 2    
    42   20   84 1    
    43   20   85 1    
    44   22   23 am   BACKBONE|DICT|INTERRES
    45   22   86 1    
    46   23   24 2    
    47   23   25 1    
    48   25   26 1    
    49   25   27 1    
    50   25   87 1    
    51   26   88 1    
    52   26   89 1    
    53   26   90 1    
    54   27   28 am   BACKBONE|DICT|INTERRES
    55   27   91 1    
    56   28   29 2    
    57   28   30 1    
    58   30   31 1    
    59   30   32 1    
    60   30   92 1    
    61   31   93 1    
    62   31   94 1    
    63   31   95 1    
    64   32   33 am   BACKBONE|DICT|INTERRES
    65   32   96 1    
    66   33   34 2    
    67   33   35 1    
    68   35   36 1    
    69   35   37 1    
    70   35   97 1    
    71   36   98 1    
    72   36   99 1    
    73   36  100 1    
    74   37   38 am   BACKBONE|DICT|INTERRES
    75   37  101 1    
    76   38   39 2    
    77   38   40 1    
    78   40   41 1    
    79   40   42 1    
    80   40  102 1    
    81   41  103 1    
    82   41  104 1    
    83   41  105 1    
    84   42   43 am   BACKBONE|DICT|INTERRES
    85   42  106 1    
    86   43   44 2    
    87   43   45 1    
    88   45   46 1    
    89   45   49 1    
    90   45  107 1    
    91   46   47 1    
    92   46  108 1    
    93   46  109 1    
    94   47   48 1    
    95   48  110 1    
    96   48  111 1    
    97   49   50 am   BACKBONE|DICT|INTERRES
    98   49  112 1    
    99   50   51 2    
   100   50   52 1    
   101   52   53 1    
   102   52   54 1    
   103   52  113 1    
   104   53  114 1    
   105   53  115 1    
   106   53  116 1    
   107   54   55 am   BACKBONE|DICT|INTERRES
   108   54  117 1    
   109   55   56 2    
   110   55   57 1    
   111   57   58 1    
   112   57   59 1    
   113   57  118 1    
   114   58  119 1    
   115   58  120 1    
   116   58  121 1    
   117   59   60 am   BACKBONE|DICT|INTERRES
   118   59  122 1    
   119   60   61 2    
   120   60   62 1    
   121   62   63 1    
   122   62   64 1    
   123   62  123 1    
   124   63  124 1    
   125   63  125 1    
   126   63  126 1    
   127   64   65 am   BACKBONE|DICT|INTERRES
   128   64  127 1    
   129   65   66 2    
@<TRIPOS>SUBSTRUCTURE
     1 UNK         1 GROUP             0       ****    0 ROOT    
