@<TRIPOS>MOLECULE
3R135
127   129    1
SMALL
USER_CHARGES


@<TRIPOS>ATOM
      1 CA        -80.5722   22.0497  -71.1692 C.3       0 UNK        -0.1998 
      2 C         -80.2535   23.3491  -71.8912 C.2       0 UNK         0.4909 
      3 O         -79.2896   23.3976  -72.6567 O.2       0 UNK        -0.5240 
      4 N         -81.0658   24.3946  -71.6670 N.am      1 UNK        -0.4739 
      5 CA        -80.9280   25.7478  -72.2315 C.3       1 UNK         0.0864 
      6 C6        -79.7742   26.5530  -71.5588 C.3       11 UNK        -0.0881 
      7 S7        -80.4051   27.6837  -70.2792 S.3       11 UNK        -0.2682 
      8 C8        -78.8901   28.6148  -69.8593 C.3       11 UNK         0.0289 
      9 C9        -78.3349   29.5317  -70.9541 C.ar      11 UNK        -0.0687 
     10 C10       -79.1098   29.9956  -72.0273 C.ar      11 UNK        -0.0823 
     11 C11       -78.5590   30.8454  -72.9935 C.ar      11 UNK        -0.0830 
     12 C12       -77.2323   31.2626  -72.8655 C.ar      11 UNK        -0.1021 
     13 C13       -76.4470   30.8093  -71.8039 C.ar      11 UNK        -0.0753 
     14 C14       -77.0018   29.9435  -70.8574 C.ar      11 UNK        -0.0933 
     15 C15       -74.9989   31.2521  -71.6819 C.3       11 UNK         0.0166 
     16 S16       -73.9731   30.4689  -72.9615 S.3       11 UNK        -0.2615 
     17 C17       -72.3178   30.5568  -72.1892 C.3       11 UNK        -0.0865 
     18 CA        -71.8312   29.1887  -71.6390 C.3       10 UNK         0.0862 
     19 C         -72.5080   28.8160  -70.2867 C.2       10 UNK         0.5551 
     20 N         -73.2028   27.6902  -70.1764 N.am      10 UNK        -0.7319 
     21 O         -72.3887   29.5606  -69.3169 O.2       10 UNK        -0.5018 
     22 N         -71.9145   28.1591  -72.6826 N.am      10 UNK        -0.4509 
     23 C         -71.1803   27.0453  -72.7653 C.2       10 UNK         0.4899 
     24 O         -70.3174   26.7271  -71.9472 O.2       10 UNK        -0.4839 
     25 CA        -71.4558   26.1290  -73.9720 C.3       9 UNK         0.0222 
     26 CB        -72.2683   24.8973  -73.5415 C.3       9 UNK        -0.1966 
     27 N         -72.1609   26.8072  -75.0651 N.am      9 UNK        -0.4218 
     28 C         -71.6117   27.7027  -75.8990 C.2       9 UNK         0.5020 
     29 O         -70.4357   28.0673  -75.8382 O.2       9 UNK        -0.5274 
     30 CA        -72.5491   28.2629  -76.9862 C.3       8 UNK         0.0270 
     31 CB        -71.8289   29.1477  -78.0255 C.3       8 UNK        -0.1976 
     32 N         -73.3159   27.1935  -77.6347 N.am      8 UNK        -0.4313 
     33 C         -72.8388   26.1450  -78.3239 C.2       8 UNK         0.5041 
     34 O         -71.6532   25.9907  -78.6202 O.2       8 UNK        -0.5577 
     35 CA        -73.8487   25.0551  -78.7253 C.3       7 UNK         0.0284 
     36 CB        -73.7036   23.8385  -77.7955 C.3       7 UNK        -0.1958 
     37 N         -75.2412   25.5100  -78.6990 N.am      7 UNK        -0.4454 
     38 C         -75.7892   26.3372  -79.5994 C.2       7 UNK         0.5089 
     39 O         -75.1920   26.7745  -80.5834 O.2       7 UNK        -0.5125 
     40 CA        -77.2422   26.7675  -79.3439 C.3       6 UNK         0.0408 
     41 CB        -78.2201   25.6830  -79.8206 C.3       6 UNK        -0.1791 
     42 N         -77.5005   27.0825  -77.9360 N.am      6 UNK        -0.4762 
     43 C         -77.0034   28.1479  -77.2873 C.2       6 UNK         0.5007 
     44 O         -76.2551   28.9758  -77.8070 O.2       6 UNK        -0.5032 
     45 CA        -77.3772   28.2867  -75.7972 C.3       5 UNK         0.0783 
     46 C46       -78.7706   28.9439  -75.6173 C.3       11 UNK        -0.0857 
     47 S47       -78.7207   30.7608  -75.7802 S.3       11 UNK        -0.2512 
     48 C48       -79.3966   31.3149  -74.1767 C.3       11 UNK         0.0225 
     49 N         -77.2925   26.9953  -75.1097 N.am      5 UNK        -0.4615 
     50 C         -76.1469   26.3410  -74.8730 C.2       4 UNK         0.5053 
     51 O         -75.0328   26.7685  -75.1798 O.2       4 UNK        -0.5105 
     52 CA        -76.2495   24.9638  -74.2023 C.3       4 UNK         0.0263 
     53 CB        -76.3025   25.1157  -72.6759 C.3       4 UNK        -0.1981 
     54 N         -77.3823   24.1543  -74.6617 N.am      4 UNK        -0.4224 
     55 C         -77.5340   23.7062  -75.9172 C.2       3 UNK         0.4895 
     56 O         -76.7986   24.0229  -76.8513 O.2       3 UNK        -0.5091 
     57 CA        -78.7035   22.7489  -76.1785 C.3       3 UNK         0.0250 
     58 CB        -78.4886   21.3988  -75.4735 C.3       3 UNK        -0.1996 
     59 N         -79.9641   23.3434  -75.7442 N.am      3 UNK        -0.4254 
     60 C         -80.7104   24.1581  -76.5027 C.2       2 UNK         0.5004 
     61 O         -80.4654   24.4140  -77.6811 O.2       2 UNK        -0.5226 
     62 CA        -81.9340   24.8158  -75.8384 C.3       2 UNK         0.0269 
     63 CB        -83.2085   24.0145  -76.1491 C.3       2 UNK        -0.1926 
     64 N         -81.8144   24.9872  -74.3863 N.am      2 UNK        -0.4687 
     65 C         -80.8735   25.7236  -73.7768 C.2       1 UNK         0.5165 
     66 O         -79.9807   26.3102  -74.3884 O.2       1 UNK        -0.5079 
     67 H67       -79.7309   21.7557  -70.5424 H         1 UNK         0.0900 
     68 H68       -81.4538   22.1399  -70.5349 H         1 UNK         0.0900 
     69 H69       -80.7526   21.2547  -71.8922 H         1 UNK         0.0900 
     70 H70       -81.8449   24.2760  -71.0338 H         1 UNK         0.2959 
     71 H71       -81.8707   26.2553  -72.0192 H         1 UNK         0.1079 
     72 H72       -79.0509   25.8848  -71.0910 H         1 UNK         0.0837 
     73 H73       -79.2020   27.1546  -72.2652 H         1 UNK         0.0837 
     74 H74       -79.1007   29.2256  -68.9807 H         1 UNK         0.0685 
     75 H75       -78.1244   27.8977  -69.5585 H         1 UNK         0.0685 
     76 H76       -80.1433   29.6945  -72.1206 H         1 UNK         0.1434 
     77 H77       -76.8024   31.9232  -73.6064 H         1 UNK         0.1329 
     78 H78       -76.3928   29.5929  -70.0349 H         1 UNK         0.1335 
     79 H79       -74.6121   31.0027  -70.6927 H         1 UNK         0.0680 
     80 H80       -74.9318   32.3368  -71.7772 H         1 UNK         0.0680 
     81 H81       -71.6200   30.9007  -72.9542 H         1 UNK         0.1032 
     82 H82       -72.2946   31.3275  -71.4162 H         1 UNK         0.1032 
     83 H83       -70.7732   29.3085  -71.3980 H         1 UNK         0.0461 
     84 H84       -73.6283   27.4554  -69.2940 H         1 UNK         0.3453 
     85 H85       -73.2966   27.0741  -70.9661 H         1 UNK         0.3453 
     86 H86       -72.6183   28.3233  -73.3877 H         1 UNK         0.2984 
     87 H87       -70.4908   25.7857  -74.3505 H         1 UNK         0.0554 
     88 H88       -71.7493   24.3405  -72.7599 H         1 UNK         0.0847 
     89 H89       -72.4251   24.2129  -74.3754 H         1 UNK         0.0847 
     90 H90       -73.2449   25.1769  -73.1479 H         1 UNK         0.0847 
     91 H91       -73.1572   26.6197  -75.1624 H         1 UNK         0.3141 
     92 H92       -73.2780   28.8893  -76.4691 H         1 UNK         0.0743 
     93 H93       -71.3596   30.0072  -77.5455 H         1 UNK         0.0784 
     94 H94       -71.0450   28.6024  -78.5519 H         1 UNK         0.0784 
     95 H95       -72.5276   29.5323  -78.7685 H         1 UNK         0.0784 
     96 H96       -74.3058   27.1905  -77.4248 H         1 UNK         0.3213 
     97 H97       -73.6081   24.7420  -79.7436 H         1 UNK         0.0855 
     98 H98       -73.9353   24.0940  -76.7606 H         1 UNK         0.0814 
     99 H99       -72.6850   23.4486  -77.8154 H         1 UNK         0.0814 
    100 H100      -74.3670   23.0275  -78.0962 H         1 UNK         0.0814 
    101 H101      -75.8295   25.1340  -77.9563 H         1 UNK         0.3105 
    102 H102      -77.4296   27.6703  -79.9292 H         1 UNK         0.0547 
    103 H103      -79.2551   26.0099  -79.7201 H         1 UNK         0.0837 
    104 H104      -78.0570   25.4446  -80.8724 H         1 UNK         0.0837 
    105 H105      -78.1070   24.7571  -79.2551 H         1 UNK         0.0837 
    106 H106      -78.0712   26.4264  -77.4211 H         1 UNK         0.3020 
    107 H107      -76.6305   28.9360  -75.3321 H         1 UNK         0.1245 
    108 H108      -79.1586   28.7121  -74.6261 H         1 UNK         0.0781 
    109 H109      -79.5041   28.5364  -76.3158 H         1 UNK         0.0781 
    110 H110      -80.4272   30.9670  -74.0889 H         1 UNK         0.0836 
    111 H111      -79.4407   32.4048  -74.1701 H         1 UNK         0.0836 
    112 H112      -78.1764   26.5814  -74.8211 H         1 UNK         0.3022 
    113 H113      -75.3405   24.4139  -74.4543 H         1 UNK         0.0747 
    114 H114      -75.4491   25.6835  -72.3041 H         1 UNK         0.0793 
    115 H115      -77.1999   25.6455  -72.3646 H         1 UNK         0.0793 
    116 H116      -76.2942   24.1462  -72.1776 H         1 UNK         0.0793 
    117 H117      -78.0560   23.8682  -73.9526 H         1 UNK         0.3047 
    118 H118      -78.7437   22.5573  -77.2533 H         1 UNK         0.0822 
    119 H119      -77.5495   20.9417  -75.7883 H         1 UNK         0.0807 
    120 H120      -79.2866   20.6969  -75.7161 H         1 UNK         0.0807 
    121 H121      -78.4535   21.5001  -74.3885 H         1 UNK         0.0807 
    122 H122      -80.2055   23.2370  -74.7679 H         1 UNK         0.2946 
    123 H123      -82.0361   25.8103  -76.2792 H         1 UNK         0.1144 
    124 H124      -84.0981   24.5200  -75.7728 H         1 UNK         0.0793 
    125 H125      -83.1756   23.0169  -75.7092 H         1 UNK         0.0793 
    126 H126      -83.3398   23.8917  -77.2253 H         1 UNK         0.0793 
    127 H127      -82.4952   24.5088  -73.8135 H         1 UNK         0.2896 
@<TRIPOS>BOND
     1    1    2 1    
     2    1   67 1    
     3    1   68 1    
     4    1   69 1    
     5    2    3 2    
     6    2    4 am   BACKBONE|DICT|INTERRES
     7    4    5 1    
     8    4   70 1    
     9    5    6 1    
    10    5   65 1    
    11    5   71 1    
    12    6    7 1    
    13    6   72 1    
    14    6   73 1    
    15    7    8 1    
    16    8    9 1    
    17    8   74 1    
    18    8   75 1    
    19    9   10 ar   
    20    9   14 ar   
    21   10   11 ar   
    22   10   76 1    
    23   11   12 ar   
    24   11   48 1    
    25   12   13 ar   
    26   12   77 1    
    27   13   14 ar   
    28   13   15 1    
    29   14   78 1    
    30   15   16 1    
    31   15   79 1    
    32   15   80 1    
    33   16   17 1    
    34   17   18 1    
    35   17   81 1    
    36   17   82 1    
    37   18   19 1    
    38   18   22 1    
    39   18   83 1    
    40   19   20 am   BACKBONE|DICT|INTERRES
    41   19   21 2    
    42   20   84 1    
    43   20   85 1    
    44   22   23 am   BACKBONE|DICT|INTERRES
    45   22   86 1    
    46   23   24 2    
    47   23   25 1    
    48   25   26 1    
    49   25   27 1    
    50   25   87 1    
    51   26   88 1    
    52   26   89 1    
    53   26   90 1    
    54   27   28 am   BACKBONE|DICT|INTERRES
    55   27   91 1    
    56   28   29 2    
    57   28   30 1    
    58   30   31 1    
    59   30   32 1    
    60   30   92 1    
    61   31   93 1    
    62   31   94 1    
    63   31   95 1    
    64   32   33 am   BACKBONE|DICT|INTERRES
    65   32   96 1    
    66   33   34 2    
    67   33   35 1    
    68   35   36 1    
    69   35   37 1    
    70   35   97 1    
    71   36   98 1    
    72   36   99 1    
    73   36  100 1    
    74   37   38 am   BACKBONE|DICT|INTERRES
    75   37  101 1    
    76   38   39 2    
    77   38   40 1    
    78   40   41 1    
    79   40   42 1    
    80   40  102 1    
    81   41  103 1    
    82   41  104 1    
    83   41  105 1    
    84   42   43 am   BACKBONE|DICT|INTERRES
    85   42  106 1    
    86   43   44 2    
    87   43   45 1    
    88   45   46 1    
    89   45   49 1    
    90   45  107 1    
    91   46   47 1    
    92   46  108 1    
    93   46  109 1    
    94   47   48 1    
    95   48  110 1    
    96   48  111 1    
    97   49   50 am   BACKBONE|DICT|INTERRES
    98   49  112 1    
    99   50   51 2    
   100   50   52 1    
   101   52   53 1    
   102   52   54 1    
   103   52  113 1    
   104   53  114 1    
   105   53  115 1    
   106   53  116 1    
   107   54   55 am   BACKBONE|DICT|INTERRES
   108   54  117 1    
   109   55   56 2    
   110   55   57 1    
   111   57   58 1    
   112   57   59 1    
   113   57  118 1    
   114   58  119 1    
   115   58  120 1    
   116   58  121 1    
   117   59   60 am   BACKBONE|DICT|INTERRES
   118   59  122 1    
   119   60   61 2    
   120   60   62 1    
   121   62   63 1    
   122   62   64 1    
   123   62  123 1    
   124   63  124 1    
   125   63  125 1    
   126   63  126 1    
   127   64   65 am   BACKBONE|DICT|INTERRES
   128   64  127 1    
   129   65   66 2    
@<TRIPOS>SUBSTRUCTURE
     1 UNK         1 GROUP             0       ****    0 ROOT    
