@<TRIPOS>MOLECULE
3R135
127   129    1
SMALL
USER_CHARGES


@<TRIPOS>ATOM
      1 CA        -80.2727   24.1357  -68.6460 C.3       0 UNK        -0.1998 
      2 C         -81.0129   24.5316  -69.9145 C.2       0 UNK         0.4909 
      3 O         -82.2008   24.2365  -70.0490 O.2       0 UNK        -0.5240 
      4 N         -80.3198   25.1985  -70.8463 N.am      1 UNK        -0.4739 
      5 CA        -80.8551   25.6304  -72.1447 C.3       1 UNK         0.0864 
      6 C6        -80.0382   26.7998  -72.7517 C.3       11 UNK        -0.0881 
      7 S7        -78.2347   26.4988  -72.8328 S.3       11 UNK        -0.2682 
      8 C8        -77.6208   27.6094  -71.5152 C.3       11 UNK         0.0289 
      9 C9        -77.4032   29.0667  -71.9305 C.ar      11 UNK        -0.0687 
     10 C10       -78.0995   29.6622  -72.9901 C.ar      11 UNK        -0.0823 
     11 C11       -77.8588   30.9906  -73.3574 C.ar      11 UNK        -0.0830 
     12 C12       -76.9383   31.7434  -72.6240 C.ar      11 UNK        -0.1021 
     13 C13       -76.2555   31.1769  -71.5451 C.ar      11 UNK        -0.0753 
     14 C14       -76.4889   29.8403  -71.2081 C.ar      11 UNK        -0.0933 
     15 C15       -75.2772   32.0128  -70.7326 C.3       11 UNK         0.0166 
     16 S16       -73.5495   31.5244  -71.0256 S.3       11 UNK        -0.2615 
     17 C17       -73.3081   31.9890  -72.7785 C.3       11 UNK        -0.0865 
     18 CA        -73.4454   30.7879  -73.7640 C.3       10 UNK         0.0862 
     19 C         -73.2565   31.2128  -75.2512 C.2       10 UNK         0.5551 
     20 N         -74.0288   32.1861  -75.7180 N.am      10 UNK        -0.7319 
     21 O         -72.4412   30.6747  -75.9972 O.2       10 UNK        -0.5018 
     22 N         -72.6435   29.6213  -73.3631 N.am      10 UNK        -0.4509 
     23 C         -71.3134   29.5558  -73.2105 C.2       10 UNK         0.4899 
     24 O         -70.5453   30.4963  -73.4178 O.2       10 UNK        -0.4839 
     25 CA        -70.7316   28.2224  -72.6923 C.3       9 UNK         0.0222 
     26 CB        -70.1810   28.3983  -71.2665 C.3       9 UNK        -0.1966 
     27 N         -71.7008   27.1196  -72.6914 N.am      9 UNK        -0.4218 
     28 C         -72.1122   26.4733  -73.7896 C.2       9 UNK         0.5020 
     29 O         -71.6292   26.6702  -74.9072 O.2       9 UNK        -0.5274 
     30 CA        -73.2541   25.4568  -73.6011 C.3       8 UNK         0.0270 
     31 CB        -74.3973   26.0163  -72.7298 C.3       8 UNK        -0.1976 
     32 N         -73.8062   25.1141  -74.9076 N.am      8 UNK        -0.4313 
     33 C         -73.5931   23.9759  -75.5791 C.2       8 UNK         0.5041 
     34 O         -72.9966   23.0041  -75.1117 O.2       8 UNK        -0.5577 
     35 CA        -74.1250   23.9045  -77.0234 C.3       7 UNK         0.0284 
     36 CB        -75.3653   22.9990  -77.1040 C.3       7 UNK        -0.1958 
     37 N         -74.4451   25.2323  -77.5599 N.am      7 UNK        -0.4454 
     38 C         -73.5266   26.0695  -78.0684 C.2       7 UNK         0.5089 
     39 O         -72.3520   25.7499  -78.2546 O.2       7 UNK        -0.5125 
     40 CA        -73.9675   27.4986  -78.4445 C.3       6 UNK         0.0408 
     41 CB        -74.0109   27.6604  -79.9730 C.3       6 UNK        -0.1791 
     42 N         -75.2606   27.9059  -77.8917 N.am      6 UNK        -0.4762 
     43 C         -75.5231   28.1334  -76.5960 C.2       6 UNK         0.5007 
     44 O         -74.6973   28.0095  -75.6929 O.2       6 UNK        -0.5032 
     45 CA        -76.9832   28.4961  -76.2547 C.3       5 UNK         0.0783 
     46 C46       -77.1987   30.0243  -76.3975 C.3       11 UNK        -0.0857 
     47 S47       -78.8927   30.5352  -75.9469 S.3       11 UNK        -0.2512 
     48 C48       -78.5999   31.6420  -74.5235 C.3       11 UNK         0.0225 
     49 N         -77.9591   27.7269  -77.0445 N.am      5 UNK        -0.4615 
     50 C         -78.0164   26.3914  -77.1183 C.2       4 UNK         0.5053 
     51 O         -77.2247   25.6412  -76.5468 O.2       4 UNK        -0.5105 
     52 CA        -79.0806   25.8012  -78.0475 C.3       4 UNK         0.0263 
     53 CB        -78.6300   25.9302  -79.5175 C.3       4 UNK        -0.1981 
     54 N         -79.2770   24.3974  -77.6957 N.am      4 UNK        -0.4224 
     55 C         -80.2602   23.6002  -78.1236 C.2       3 UNK         0.4895 
     56 O         -81.1668   23.9694  -78.8713 O.2       3 UNK        -0.5091 
     57 CA        -80.2362   22.1383  -77.6426 C.3       3 UNK         0.0250 
     58 CB        -78.9377   21.4112  -78.0520 C.3       3 UNK        -0.1996 
     59 N         -80.5221   21.9902  -76.2097 N.am      3 UNK        -0.4254 
     60 C         -79.7901   22.4142  -75.1700 C.2       2 UNK         0.5004 
     61 O         -78.6920   22.9643  -75.2679 O.2       2 UNK        -0.5226 
     62 CA        -80.3783   22.1535  -73.7737 C.3       2 UNK         0.0269 
     63 CB        -79.6262   21.0106  -73.0725 C.3       2 UNK        -0.1926 
     64 N         -80.3248   23.3509  -72.9342 N.am      2 UNK        -0.4687 
     65 C         -81.0369   24.4678  -73.1458 C.2       1 UNK         0.5165 
     66 O         -81.8409   24.5941  -74.0714 O.2       1 UNK        -0.5079 
     67 H67       -79.2344   24.4669  -68.6590 H         1 UNK         0.0900 
     68 H68       -80.2817   23.0523  -68.5292 H         1 UNK         0.0900 
     69 H69       -80.7579   24.5765  -67.7756 H         1 UNK         0.0900 
     70 H70       -79.3432   25.4073  -70.6945 H         1 UNK         0.2959 
     71 H71       -81.8630   26.0128  -71.9656 H         1 UNK         0.1079 
     72 H72       -80.3931   27.0400  -73.7562 H         1 UNK         0.0837 
     73 H73       -80.2234   27.6990  -72.1623 H         1 UNK         0.0837 
     74 H74       -78.3007   27.5801  -70.6629 H         1 UNK         0.0685 
     75 H75       -76.6747   27.1971  -71.1620 H         1 UNK         0.0685 
     76 H76       -78.8269   29.0936  -73.5482 H         1 UNK         0.1434 
     77 H77       -76.7595   32.7773  -72.8864 H         1 UNK         0.1329 
     78 H78       -75.9531   29.4033  -70.3763 H         1 UNK         0.1335 
     79 H79       -75.3949   33.0759  -70.9485 H         1 UNK         0.0680 
     80 H80       -75.5002   31.8921  -69.6715 H         1 UNK         0.0680 
     81 H81       -72.3189   32.4401  -72.8715 H         1 UNK         0.1032 
     82 H82       -74.0145   32.7810  -73.0294 H         1 UNK         0.1032 
     83 H83       -74.4740   30.4301  -73.7075 H         1 UNK         0.0461 
     84 H84       -74.7121   32.6435  -75.1372 H         1 UNK         0.3453 
     85 H85       -73.9177   32.4731  -76.6777 H         1 UNK         0.3453 
     86 H86       -73.1721   28.7759  -73.2170 H         1 UNK         0.2984 
     87 H87       -69.8996   27.9534  -73.3465 H         1 UNK         0.0554 
     88 H88       -69.7174   27.4817  -70.9014 H         1 UNK         0.0847 
     89 H89       -70.9646   28.6850  -70.5637 H         1 UNK         0.0847 
     90 H90       -69.4183   29.1778  -71.2359 H         1 UNK         0.0847 
     91 H91       -72.1272   26.8929  -71.8043 H         1 UNK         0.3141 
     92 H92       -72.8395   24.5714  -73.1152 H         1 UNK         0.0743 
     93 H93       -74.7817   26.9603  -73.1192 H         1 UNK         0.0784 
     94 H94       -75.2334   25.3175  -72.6881 H         1 UNK         0.0784 
     95 H95       -74.0791   26.1856  -71.7010 H         1 UNK         0.0784 
     96 H96       -74.2293   25.8887  -75.4057 H         1 UNK         0.3213 
     97 H97       -73.3439   23.4538  -77.6397 H         1 UNK         0.0855 
     98 H98       -76.1422   23.3114  -76.4060 H         1 UNK         0.0814 
     99 H99       -75.1081   21.9694  -76.8528 H         1 UNK         0.0814 
    100 H100      -75.7930   22.9923  -78.1066 H         1 UNK         0.0814 
    101 H101      -75.3938   25.5606  -77.4067 H         1 UNK         0.3105 
    102 H102      -73.2106   28.1805  -78.0503 H         1 UNK         0.0547 
    103 H103      -73.0494   27.4049  -80.4208 H         1 UNK         0.0837 
    104 H104      -74.7625   27.0130  -80.4265 H         1 UNK         0.0837 
    105 H105      -74.2335   28.6886  -80.2586 H         1 UNK         0.0837 
    106 H106      -76.0183   28.0099  -78.5510 H         1 UNK         0.3020 
    107 H107      -77.1316   28.2180  -75.2095 H         1 UNK         0.1245 
    108 H108      -77.0149   30.3455  -77.4245 H         1 UNK         0.0781 
    109 H109      -76.4814   30.5684  -75.7804 H         1 UNK         0.0781 
    110 H110      -79.5621   32.0067  -74.1621 H         1 UNK         0.0836 
    111 H111      -78.0538   32.5168  -74.8803 H         1 UNK         0.0836 
    112 H112      -78.6466   28.2753  -77.5412 H         1 UNK         0.3022 
    113 H113      -80.0186   26.3382  -77.8929 H         1 UNK         0.0747 
    114 H114      -79.3845   25.5487  -80.2053 H         1 UNK         0.0793 
    115 H115      -78.4537   26.9718  -79.7884 H         1 UNK         0.0793 
    116 H116      -77.7045   25.3828  -79.7018 H         1 UNK         0.0793 
    117 H117      -78.6319   24.0416  -76.9915 H         1 UNK         0.3047 
    118 H118      -81.0554   21.6333  -78.1576 H         1 UNK         0.0822 
    119 H119      -78.9895   20.3491  -77.8126 H         1 UNK         0.0807 
    120 H120      -78.0575   21.8193  -77.5564 H         1 UNK         0.0807 
    121 H121      -78.7695   21.4928  -79.1266 H         1 UNK         0.0807 
    122 H122      -81.4162   21.5649  -76.0059 H         1 UNK         0.2946 
    123 H123      -81.4269   21.8647  -73.8757 H         1 UNK         0.1144 
    124 H124      -80.0612   20.7866  -72.0982 H         1 UNK         0.0793 
    125 H125      -78.5730   21.2532  -72.9236 H         1 UNK         0.0793 
    126 H126      -79.6687   20.0951  -73.6642 H         1 UNK         0.0793 
    127 H127      -79.6638   23.3474  -72.1718 H         1 UNK         0.2896 
@<TRIPOS>BOND
     1    1    2 1    
     2    1   67 1    
     3    1   68 1    
     4    1   69 1    
     5    2    3 2    
     6    2    4 am   BACKBONE|DICT|INTERRES
     7    4    5 1    
     8    4   70 1    
     9    5    6 1    
    10    5   65 1    
    11    5   71 1    
    12    6    7 1    
    13    6   72 1    
    14    6   73 1    
    15    7    8 1    
    16    8    9 1    
    17    8   74 1    
    18    8   75 1    
    19    9   10 ar   
    20    9   14 ar   
    21   10   11 ar   
    22   10   76 1    
    23   11   12 ar   
    24   11   48 1    
    25   12   13 ar   
    26   12   77 1    
    27   13   14 ar   
    28   13   15 1    
    29   14   78 1    
    30   15   16 1    
    31   15   79 1    
    32   15   80 1    
    33   16   17 1    
    34   17   18 1    
    35   17   81 1    
    36   17   82 1    
    37   18   19 1    
    38   18   22 1    
    39   18   83 1    
    40   19   20 am   BACKBONE|DICT|INTERRES
    41   19   21 2    
    42   20   84 1    
    43   20   85 1    
    44   22   23 am   BACKBONE|DICT|INTERRES
    45   22   86 1    
    46   23   24 2    
    47   23   25 1    
    48   25   26 1    
    49   25   27 1    
    50   25   87 1    
    51   26   88 1    
    52   26   89 1    
    53   26   90 1    
    54   27   28 am   BACKBONE|DICT|INTERRES
    55   27   91 1    
    56   28   29 2    
    57   28   30 1    
    58   30   31 1    
    59   30   32 1    
    60   30   92 1    
    61   31   93 1    
    62   31   94 1    
    63   31   95 1    
    64   32   33 am   BACKBONE|DICT|INTERRES
    65   32   96 1    
    66   33   34 2    
    67   33   35 1    
    68   35   36 1    
    69   35   37 1    
    70   35   97 1    
    71   36   98 1    
    72   36   99 1    
    73   36  100 1    
    74   37   38 am   BACKBONE|DICT|INTERRES
    75   37  101 1    
    76   38   39 2    
    77   38   40 1    
    78   40   41 1    
    79   40   42 1    
    80   40  102 1    
    81   41  103 1    
    82   41  104 1    
    83   41  105 1    
    84   42   43 am   BACKBONE|DICT|INTERRES
    85   42  106 1    
    86   43   44 2    
    87   43   45 1    
    88   45   46 1    
    89   45   49 1    
    90   45  107 1    
    91   46   47 1    
    92   46  108 1    
    93   46  109 1    
    94   47   48 1    
    95   48  110 1    
    96   48  111 1    
    97   49   50 am   BACKBONE|DICT|INTERRES
    98   49  112 1    
    99   50   51 2    
   100   50   52 1    
   101   52   53 1    
   102   52   54 1    
   103   52  113 1    
   104   53  114 1    
   105   53  115 1    
   106   53  116 1    
   107   54   55 am   BACKBONE|DICT|INTERRES
   108   54  117 1    
   109   55   56 2    
   110   55   57 1    
   111   57   58 1    
   112   57   59 1    
   113   57  118 1    
   114   58  119 1    
   115   58  120 1    
   116   58  121 1    
   117   59   60 am   BACKBONE|DICT|INTERRES
   118   59  122 1    
   119   60   61 2    
   120   60   62 1    
   121   62   63 1    
   122   62   64 1    
   123   62  123 1    
   124   63  124 1    
   125   63  125 1    
   126   63  126 1    
   127   64   65 am   BACKBONE|DICT|INTERRES
   128   64  127 1    
   129   65   66 2    
@<TRIPOS>SUBSTRUCTURE
     1 UNK         1 GROUP             0       ****    0 ROOT    
