@<TRIPOS>MOLECULE
3R135
127   129    1
SMALL
USER_CHARGES


@<TRIPOS>ATOM
      1 CA        -82.8351   27.8319  -70.0724 C.3       0 UNK        -0.1998 
      2 C         -83.4453   27.2950  -71.3583 C.2       0 UNK         0.4909 
      3 O         -84.4763   26.6233  -71.3149 O.2       0 UNK        -0.5240 
      4 N         -82.8156   27.5885  -72.5034 N.am      1 UNK        -0.4739 
      5 CA        -83.2289   27.1308  -73.8368 C.3       1 UNK         0.0864 
      6 C6        -82.5185   27.9313  -74.9626 C.3       11 UNK        -0.0881 
      7 S7        -80.6899   27.8491  -74.8939 S.3       11 UNK        -0.2682 
      8 C8        -80.2810   29.4919  -74.2169 C.3       11 UNK         0.0289 
      9 C9        -78.9019   29.5146  -73.5703 C.ar      11 UNK        -0.0687 
     10 C10       -78.6323   28.6823  -72.4806 C.ar      11 UNK        -0.0823 
     11 C11       -77.3837   28.7092  -71.8562 C.ar      11 UNK        -0.0830 
     12 C12       -76.4091   29.6015  -72.3083 C.ar      11 UNK        -0.1021 
     13 C13       -76.6576   30.4413  -73.3996 C.ar      11 UNK        -0.0753 
     14 C14       -77.9081   30.3872  -74.0288 C.ar      11 UNK        -0.0933 
     15 C15       -75.6020   31.4374  -73.8767 C.3       11 UNK         0.0166 
     16 S16       -74.0421   30.6458  -74.4012 S.3       11 UNK        -0.2615 
     17 C17       -73.1059   30.5359  -72.8328 C.3       11 UNK        -0.0865 
     18 CA        -71.6722   31.1371  -72.9408 C.3       10 UNK         0.0862 
     19 C         -71.0053   31.3708  -71.5481 C.2       10 UNK         0.5551 
     20 N         -69.6868   31.2760  -71.4243 N.am      10 UNK        -0.7319 
     21 O         -71.6838   31.6791  -70.5711 O.2       10 UNK        -0.5018 
     22 N         -70.8243   30.4267  -73.9194 N.am      10 UNK        -0.4509 
     23 C         -70.4112   29.1555  -73.8264 C.2       10 UNK         0.4899 
     24 O         -70.6574   28.4094  -72.8761 O.2       10 UNK        -0.4839 
     25 CA        -69.5368   28.6354  -74.9813 C.3       9 UNK         0.0222 
     26 CB        -68.0556   28.6059  -74.5697 C.3       9 UNK        -0.1966 
     27 N         -69.9555   27.2930  -75.3929 N.am      9 UNK        -0.4218 
     28 C         -71.1185   27.0312  -76.0038 C.2       9 UNK         0.5020 
     29 O         -71.8913   27.9141  -76.3808 O.2       9 UNK        -0.5274 
     30 CA        -71.4625   25.5417  -76.2137 C.3       8 UNK         0.0270 
     31 CB        -71.6440   24.8200  -74.8656 C.3       8 UNK        -0.1976 
     32 N         -72.6892   25.3729  -76.9938 N.am      8 UNK        -0.4313 
     33 C         -72.8092   25.5843  -78.3108 C.2       8 UNK         0.5041 
     34 O         -71.8551   25.7785  -79.0667 O.2       8 UNK        -0.5577 
     35 CA        -74.2395   25.5937  -78.8796 C.3       7 UNK         0.0284 
     36 CB        -74.6707   24.1783  -79.2956 C.3       7 UNK        -0.1958 
     37 N         -75.2125   26.1481  -77.9330 N.am      7 UNK        -0.4454 
     38 C         -75.2964   27.4445  -77.5986 C.2       7 UNK         0.5089 
     39 O         -74.6420   28.3332  -78.1444 O.2       7 UNK        -0.5125 
     40 CA        -76.2964   27.8240  -76.4917 C.3       6 UNK         0.0408 
     41 CB        -77.6423   28.2311  -77.1105 C.3       6 UNK        -0.1791 
     42 N         -76.5039   26.7535  -75.5103 N.am      6 UNK        -0.4762 
     43 C         -75.6355   26.4440  -74.5332 C.2       6 UNK         0.5007 
     44 O         -74.5816   27.0464  -74.3411 O.2       6 UNK        -0.5032 
     45 CA        -75.9609   25.2080  -73.6617 C.3       5 UNK         0.0783 
     46 C46       -76.8345   25.5454  -72.4282 C.3       11 UNK        -0.0857 
     47 S47       -75.9198   26.4547  -71.1364 S.3       11 UNK        -0.2512 
     48 C48       -77.0898   27.7787  -70.6882 C.3       11 UNK         0.0225 
     49 N         -76.5658   24.1289  -74.4451 N.am      5 UNK        -0.4615 
     50 C         -75.9428   23.4394  -75.4095 C.2       4 UNK         0.5053 
     51 O         -74.7657   23.6104  -75.7223 O.2       4 UNK        -0.5105 
     52 CA        -76.8008   22.4269  -76.1881 C.3       4 UNK         0.0263 
     53 CB        -76.8104   21.0657  -75.4759 C.3       4 UNK        -0.1981 
     54 N         -78.1797   22.8864  -76.3848 N.am      4 UNK        -0.4224 
     55 C         -78.5337   23.9842  -77.0649 C.2       3 UNK         0.4895 
     56 O         -77.7272   24.7101  -77.6435 O.2       3 UNK        -0.5091 
     57 CA        -80.0176   24.3819  -77.0521 C.3       3 UNK         0.0250 
     58 CB        -80.8340   23.5480  -78.0581 C.3       3 UNK        -0.1996 
     59 N         -80.6253   24.3821  -75.7130 N.am      3 UNK        -0.4254 
     60 C         -80.9074   23.3465  -74.9060 C.2       2 UNK         0.5004 
     61 O         -80.6412   22.1757  -75.1807 O.2       2 UNK        -0.5226 
     62 CA        -81.5565   23.6619  -73.5428 C.3       2 UNK         0.0269 
     63 CB        -80.5814   23.3378  -72.3978 C.3       2 UNK        -0.1926 
     64 N         -81.9960   25.0535  -73.4006 N.am      2 UNK        -0.4687 
     65 C         -83.0413   25.6103  -74.0310 C.2       1 UNK         0.5165 
     66 O         -83.8133   24.9851  -74.7587 O.2       1 UNK        -0.5079 
     67 H67       -83.5513   28.4701  -69.5556 H         1 UNK         0.0900 
     68 H68       -81.9344   28.4163  -70.2598 H         1 UNK         0.0900 
     69 H69       -82.5727   27.0078  -69.4095 H         1 UNK         0.0900 
     70 H70       -81.9788   28.1516  -72.4801 H         1 UNK         0.2959 
     71 H71       -84.3014   27.3194  -73.9265 H         1 UNK         0.1079 
     72 H72       -82.8401   27.5746  -75.9434 H         1 UNK         0.0837 
     73 H73       -82.8342   28.9750  -74.9237 H         1 UNK         0.0837 
     74 H74       -80.3503   30.2292  -75.0182 H         1 UNK         0.0685 
     75 H75       -81.0179   29.7808  -73.4668 H         1 UNK         0.0685 
     76 H76       -79.3961   28.0053  -72.1246 H         1 UNK         0.1434 
     77 H77       -75.4520   29.6250  -71.8104 H         1 UNK         0.1329 
     78 H78       -78.1151   31.0385  -74.8668 H         1 UNK         0.1335 
     79 H79       -75.9831   32.0043  -74.7273 H         1 UNK         0.0680 
     80 H80       -75.4101   32.1714  -73.0933 H         1 UNK         0.0680 
     81 H81       -73.0671   29.4905  -72.5226 H         1 UNK         0.1032 
     82 H82       -73.6699   31.0555  -72.0575 H         1 UNK         0.1032 
     83 H83       -71.7842   32.1441  -73.3442 H         1 UNK         0.0461 
     84 H84       -69.2612   31.4401  -70.5255 H         1 UNK         0.3453 
     85 H85       -69.1165   31.0355  -72.2186 H         1 UNK         0.3453 
     86 H86       -70.5607   30.9636  -74.7331 H         1 UNK         0.2984 
     87 H87       -69.6410   29.3033  -75.8393 H         1 UNK         0.0554 
     88 H88       -67.4217   28.2628  -75.3877 H         1 UNK         0.0847 
     89 H89       -67.8859   27.9503  -73.7145 H         1 UNK         0.0847 
     90 H90       -67.7087   29.6014  -74.2897 H         1 UNK         0.0847 
     91 H91       -69.3815   26.5226  -75.0828 H         1 UNK         0.3141 
     92 H92       -70.6389   25.0745  -76.7575 H         1 UNK         0.0743 
     93 H93       -71.9164   23.7740  -75.0092 H         1 UNK         0.0784 
     94 H94       -70.7267   24.8344  -74.2763 H         1 UNK         0.0784 
     95 H95       -72.4247   25.2873  -74.2638 H         1 UNK         0.0784 
     96 H96       -73.5330   25.1807  -76.4667 H         1 UNK         0.3213 
     97 H97       -74.2391   26.2247  -79.7711 H         1 UNK         0.0855 
     98 H98       -74.6470   23.4853  -78.4549 H         1 UNK         0.0814 
     99 H99       -74.0048   23.7804  -80.0624 H         1 UNK         0.0814 
    100 H100      -75.6804   24.1738  -79.7069 H         1 UNK         0.0814 
    101 H101      -75.8829   25.5040  -77.5266 H         1 UNK         0.3105 
    102 H102      -75.8931   28.6940  -75.9690 H         1 UNK         0.0547 
    103 H103      -77.5066   29.0128  -77.8589 H         1 UNK         0.0837 
    104 H104      -78.1382   27.3933  -77.6008 H         1 UNK         0.0837 
    105 H105      -78.3165   28.6292  -76.3559 H         1 UNK         0.0837 
    106 H106      -77.3257   26.1812  -75.6331 H         1 UNK         0.3020 
    107 H107      -75.0039   24.8256  -73.2974 H         1 UNK         0.1245 
    108 H108      -77.1854   24.6239  -71.9608 H         1 UNK         0.0781 
    109 H109      -77.7339   26.0834  -72.7280 H         1 UNK         0.0781 
    110 H110      -76.6685   28.3577  -69.8651 H         1 UNK         0.0836 
    111 H111      -78.0076   27.3298  -70.3051 H         1 UNK         0.0836 
    112 H112      -77.5334   23.9167  -74.2569 H         1 UNK         0.3022 
    113 H113      -76.3496   22.2961  -77.1734 H         1 UNK         0.0747 
    114 H114      -77.3465   20.3174  -76.0600 H         1 UNK         0.0793 
    115 H115      -75.7949   20.6947  -75.3296 H         1 UNK         0.0793 
    116 H116      -77.2822   21.1251  -74.4941 H         1 UNK         0.0793 
    117 H117      -78.9249   22.3598  -75.9339 H         1 UNK         0.3047 
    118 H118      -80.0606   25.4199  -77.3869 H         1 UNK         0.0822 
    119 H119      -81.8726   23.8770  -78.0927 H         1 UNK         0.0807 
    120 H120      -80.8274   22.4853  -77.8148 H         1 UNK         0.0807 
    121 H121      -80.4277   23.6504  -79.0653 H         1 UNK         0.0807 
    122 H122      -80.8509   25.3011  -75.3556 H         1 UNK         0.2946 
    123 H123      -82.4311   23.0140  -73.4492 H         1 UNK         0.1144 
    124 H124      -81.0525   23.4790  -71.4248 H         1 UNK         0.0793 
    125 H125      -79.6910   23.9661  -72.4339 H         1 UNK         0.0793 
    126 H126      -80.2505   22.2991  -72.4450 H         1 UNK         0.0793 
    127 H127      -81.4287   25.6527  -72.8190 H         1 UNK         0.2896 
@<TRIPOS>BOND
     1    1    2 1    
     2    1   67 1    
     3    1   68 1    
     4    1   69 1    
     5    2    3 2    
     6    2    4 am   BACKBONE|DICT|INTERRES
     7    4    5 1    
     8    4   70 1    
     9    5    6 1    
    10    5   65 1    
    11    5   71 1    
    12    6    7 1    
    13    6   72 1    
    14    6   73 1    
    15    7    8 1    
    16    8    9 1    
    17    8   74 1    
    18    8   75 1    
    19    9   10 ar   
    20    9   14 ar   
    21   10   11 ar   
    22   10   76 1    
    23   11   12 ar   
    24   11   48 1    
    25   12   13 ar   
    26   12   77 1    
    27   13   14 ar   
    28   13   15 1    
    29   14   78 1    
    30   15   16 1    
    31   15   79 1    
    32   15   80 1    
    33   16   17 1    
    34   17   18 1    
    35   17   81 1    
    36   17   82 1    
    37   18   19 1    
    38   18   22 1    
    39   18   83 1    
    40   19   20 am   BACKBONE|DICT|INTERRES
    41   19   21 2    
    42   20   84 1    
    43   20   85 1    
    44   22   23 am   BACKBONE|DICT|INTERRES
    45   22   86 1    
    46   23   24 2    
    47   23   25 1    
    48   25   26 1    
    49   25   27 1    
    50   25   87 1    
    51   26   88 1    
    52   26   89 1    
    53   26   90 1    
    54   27   28 am   BACKBONE|DICT|INTERRES
    55   27   91 1    
    56   28   29 2    
    57   28   30 1    
    58   30   31 1    
    59   30   32 1    
    60   30   92 1    
    61   31   93 1    
    62   31   94 1    
    63   31   95 1    
    64   32   33 am   BACKBONE|DICT|INTERRES
    65   32   96 1    
    66   33   34 2    
    67   33   35 1    
    68   35   36 1    
    69   35   37 1    
    70   35   97 1    
    71   36   98 1    
    72   36   99 1    
    73   36  100 1    
    74   37   38 am   BACKBONE|DICT|INTERRES
    75   37  101 1    
    76   38   39 2    
    77   38   40 1    
    78   40   41 1    
    79   40   42 1    
    80   40  102 1    
    81   41  103 1    
    82   41  104 1    
    83   41  105 1    
    84   42   43 am   BACKBONE|DICT|INTERRES
    85   42  106 1    
    86   43   44 2    
    87   43   45 1    
    88   45   46 1    
    89   45   49 1    
    90   45  107 1    
    91   46   47 1    
    92   46  108 1    
    93   46  109 1    
    94   47   48 1    
    95   48  110 1    
    96   48  111 1    
    97   49   50 am   BACKBONE|DICT|INTERRES
    98   49  112 1    
    99   50   51 2    
   100   50   52 1    
   101   52   53 1    
   102   52   54 1    
   103   52  113 1    
   104   53  114 1    
   105   53  115 1    
   106   53  116 1    
   107   54   55 am   BACKBONE|DICT|INTERRES
   108   54  117 1    
   109   55   56 2    
   110   55   57 1    
   111   57   58 1    
   112   57   59 1    
   113   57  118 1    
   114   58  119 1    
   115   58  120 1    
   116   58  121 1    
   117   59   60 am   BACKBONE|DICT|INTERRES
   118   59  122 1    
   119   60   61 2    
   120   60   62 1    
   121   62   63 1    
   122   62   64 1    
   123   62  123 1    
   124   63  124 1    
   125   63  125 1    
   126   63  126 1    
   127   64   65 am   BACKBONE|DICT|INTERRES
   128   64  127 1    
   129   65   66 2    
@<TRIPOS>SUBSTRUCTURE
     1 UNK         1 GROUP             0       ****    0 ROOT    
