@<TRIPOS>MOLECULE
3R135
127   129    1
SMALL
USER_CHARGES


@<TRIPOS>ATOM
      1 CA        -75.9140   22.0659  -71.7401 C.3       0 UNK        -0.1998 
      2 C         -77.3724   22.4955  -71.7085 C.2       0 UNK         0.4909 
      3 O         -78.1538   21.9577  -70.9240 O.2       0 UNK        -0.5240 
      4 N         -77.7476   23.4564  -72.5634 N.am      1 UNK        -0.4739 
      5 CA        -79.1064   24.0099  -72.6688 C.3       1 UNK         0.0864 
      6 C6        -79.1527   25.3097  -73.5167 C.3       11 UNK        -0.0881 
      7 S7        -77.7780   26.4770  -73.2642 S.3       11 UNK        -0.2682 
      8 C8        -78.5849   27.8387  -72.3722 C.3       11 UNK         0.0289 
      9 C9        -77.6744   29.0548  -72.3633 C.ar      11 UNK        -0.0687 
     10 C10       -77.8025   30.0323  -73.3527 C.ar      11 UNK        -0.0823 
     11 C11       -76.9124   31.1067  -73.4075 C.ar      11 UNK        -0.0830 
     12 C12       -75.9156   31.2216  -72.4333 C.ar      11 UNK        -0.1021 
     13 C13       -75.7997   30.2725  -71.4069 C.ar      11 UNK        -0.0753 
     14 C14       -76.6789   29.1848  -71.3911 C.ar      11 UNK        -0.0933 
     15 C15       -74.7223   30.3577  -70.3234 C.3       11 UNK         0.0166 
     16 S16       -74.0954   32.0445  -69.9976 S.3       11 UNK        -0.2615 
     17 C17       -72.2850   31.8191  -70.1070 C.3       11 UNK        -0.0865 
     18 CA        -71.7090   32.2121  -71.5010 C.3       10 UNK         0.0862 
     19 C         -70.1534   32.3425  -71.4984 C.2       10 UNK         0.5551 
     20 N         -69.4670   32.0608  -72.5993 N.am      10 UNK        -0.7319 
     21 O         -69.5589   32.7371  -70.4979 O.2       10 UNK        -0.5018 
     22 N         -72.2616   31.3952  -72.5999 N.am      10 UNK        -0.4509 
     23 C         -72.0841   30.0784  -72.7656 C.2       10 UNK         0.4899 
     24 O         -71.3846   29.3719  -72.0345 O.2       10 UNK        -0.4839 
     25 CA        -72.8214   29.4431  -73.9482 C.3       9 UNK         0.0222 
     26 CB        -72.1455   29.7861  -75.2891 C.3       9 UNK        -0.1966 
     27 N         -72.8538   27.9955  -73.7550 N.am      9 UNK        -0.4218 
     28 C         -73.7639   27.1753  -74.2832 C.2       9 UNK         0.5020 
     29 O         -74.6683   27.5487  -75.0321 O.2       9 UNK        -0.5274 
     30 CA        -73.6527   25.6870  -73.9318 C.3       8 UNK         0.0270 
     31 CB        -74.0661   25.4086  -72.4748 C.3       8 UNK        -0.1976 
     32 N         -74.5283   24.9774  -74.8562 N.am      8 UNK        -0.4313 
     33 C         -74.4000   23.7226  -75.2917 C.2       8 UNK         0.5041 
     34 O         -73.5783   22.9212  -74.8459 O.2       8 UNK        -0.5577 
     35 CA        -75.3472   23.2879  -76.4262 C.3       7 UNK         0.0284 
     36 CB        -76.5623   22.5370  -75.8612 C.3       7 UNK        -0.1958 
     37 N         -75.8137   24.4080  -77.2536 N.am      7 UNK        -0.4454 
     38 C         -75.0504   25.0560  -78.1474 C.2       7 UNK         0.5089 
     39 O         -73.8833   24.7514  -78.3950 O.2       7 UNK        -0.5125 
     40 CA        -75.6784   26.2544  -78.8732 C.3       6 UNK         0.0408 
     41 CB        -76.5674   25.7886  -80.0368 C.3       6 UNK        -0.1791 
     42 N         -76.4678   27.0699  -77.9500 N.am      6 UNK        -0.4762 
     43 C         -76.2667   28.3713  -77.6929 C.2       6 UNK         0.5007 
     44 O         -75.4156   29.0502  -78.2709 O.2       6 UNK        -0.5032 
     45 CA        -77.1594   29.0192  -76.6040 C.3       5 UNK         0.0783 
     46 C46       -77.4387   30.5342  -76.8284 C.3       11 UNK        -0.0857 
     47 S47       -76.1850   31.6094  -76.0433 S.3       11 UNK        -0.2512 
     48 C48       -77.0273   32.1449  -74.5159 C.3       11 UNK         0.0225 
     49 N         -78.3764   28.2480  -76.3220 N.am      5 UNK        -0.4615 
     50 C         -79.4217   28.0795  -77.1416 C.2       4 UNK         0.5053 
     51 O         -79.5036   28.5522  -78.2761 O.2       4 UNK        -0.5105 
     52 CA        -80.5738   27.2277  -76.5846 C.3       4 UNK         0.0263 
     53 CB        -81.9147   27.9720  -76.7022 C.3       4 UNK        -0.1981 
     54 N         -80.6967   25.9090  -77.2138 N.am      4 UNK        -0.4224 
     55 C         -79.7281   24.9921  -77.3409 C.2       3 UNK         0.4895 
     56 O         -78.5443   25.1696  -77.0347 O.2       3 UNK        -0.5091 
     57 CA        -80.1704   23.5970  -77.7875 C.3       3 UNK         0.0250 
     58 CB        -79.3342   23.0828  -78.9718 C.3       3 UNK        -0.1996 
     59 N         -79.9739   22.7310  -76.6311 N.am      3 UNK        -0.4254 
     60 C         -80.8181   21.7966  -76.1772 C.2       2 UNK         0.5004 
     61 O         -81.8605   21.4744  -76.7476 O.2       2 UNK        -0.5226 
     62 CA        -80.4365   21.1145  -74.8479 C.3       2 UNK         0.0269 
     63 CB        -79.6556   19.8174  -75.1145 C.3       2 UNK        -0.1926 
     64 N         -79.6353   21.9893  -73.9840 N.am      2 UNK        -0.4687 
     65 C         -80.1268   23.0137  -73.2692 C.2       1 UNK         0.5165 
     66 O         -81.3317   23.2296  -73.1355 O.2       1 UNK        -0.5079 
     67 H67       -75.8410   20.9788  -71.7290 H         1 UNK         0.0900 
     68 H68       -75.4045   22.4250  -72.6333 H         1 UNK         0.0900 
     69 H69       -75.3898   22.4520  -70.8665 H         1 UNK         0.0900 
     70 H70       -77.0525   23.9177  -73.1325 H         1 UNK         0.2959 
     71 H71       -79.4433   24.2489  -71.6576 H         1 UNK         0.1079 
     72 H72       -79.1267   25.0619  -74.5748 H         1 UNK         0.0837 
     73 H73       -80.1031   25.8229  -73.3585 H         1 UNK         0.0837 
     74 H74       -78.8143   27.5238  -71.3530 H         1 UNK         0.0685 
     75 H75       -79.5355   28.0861  -72.8473 H         1 UNK         0.0685 
     76 H76       -78.5781   29.9420  -74.0996 H         1 UNK         0.1434 
     77 H77       -75.2301   32.0550  -72.4833 H         1 UNK         0.1329 
     78 H78       -76.5803   28.4248  -70.6278 H         1 UNK         0.1335 
     79 H79       -73.9067   29.6908  -70.5996 H         1 UNK         0.0680 
     80 H80       -75.1203   29.9711  -69.3840 H         1 UNK         0.0680 
     81 H81       -71.8521   32.4501  -69.3287 H         1 UNK         0.1032 
     82 H82       -72.0084   30.7986  -69.8387 H         1 UNK         0.1032 
     83 H83       -72.0526   33.2264  -71.7072 H         1 UNK         0.0461 
     84 H84       -68.4638   32.1577  -72.5954 H         1 UNK         0.3453 
     85 H85       -69.9423   31.7458  -73.4293 H         1 UNK         0.3453 
     86 H86       -72.8322   31.8952  -73.2659 H         1 UNK         0.2984 
     87 H87       -73.8449   29.8248  -73.9508 H         1 UNK         0.0554 
     88 H88       -72.6945   29.3585  -76.1288 H         1 UNK         0.0847 
     89 H89       -71.1221   29.4115  -75.3319 H         1 UNK         0.0847 
     90 H90       -72.1090   30.8640  -75.4500 H         1 UNK         0.0847 
     91 H91       -72.1631   27.6473  -73.1007 H         1 UNK         0.3141 
     92 H92       -72.6203   25.3704  -74.0941 H         1 UNK         0.0743 
     93 H93       -73.4381   25.9604  -71.7747 H         1 UNK         0.0784 
     94 H94       -75.0987   25.7002  -72.2838 H         1 UNK         0.0784 
     95 H95       -73.9628   24.3520  -72.2311 H         1 UNK         0.0784 
     96 H96       -75.1836   25.5984  -75.3188 H         1 UNK         0.3213 
     97 H97       -74.7894   22.5981  -77.0637 H         1 UNK         0.0855 
     98 H98       -77.2190   23.2082  -75.3102 H         1 UNK         0.0814 
     99 H99       -76.2528   21.7394  -75.1840 H         1 UNK         0.0814 
    100 H100      -77.1390   22.0725  -76.6609 H         1 UNK         0.0814 
    101 H101      -76.7828   24.6949  -77.1354 H         1 UNK         0.3105 
    102 H102      -74.8573   26.8399  -79.2917 H         1 UNK         0.0547 
    103 H103      -77.4279   25.2201  -79.6864 H         1 UNK         0.0837 
    104 H104      -76.9416   26.6375  -80.6089 H         1 UNK         0.0837 
    105 H105      -76.0106   25.1521  -80.7256 H         1 UNK         0.0837 
    106 H106      -77.2142   26.5945  -77.4535 H         1 UNK         0.3020 
    107 H107      -76.5816   28.9338  -75.6847 H         1 UNK         0.1245 
    108 H108      -78.4159   30.8080  -76.4293 H         1 UNK         0.0781 
    109 H109      -77.4952   30.7724  -77.8922 H         1 UNK         0.0781 
    110 H110      -76.5800   33.0847  -74.1884 H         1 UNK         0.0836 
    111 H111      -78.0749   32.3717  -74.7191 H         1 UNK         0.0836 
    112 H112      -78.3750   27.7642  -75.4336 H         1 UNK         0.3022 
    113 H113      -80.3916   27.0593  -75.5222 H         1 UNK         0.0747 
    114 H114      -81.8563   28.9580  -76.2390 H         1 UNK         0.0793 
    115 H115      -82.7173   27.4290  -76.2027 H         1 UNK         0.0793 
    116 H116      -82.2050   28.1186  -77.7435 H         1 UNK         0.0793 
    117 H117      -81.6288   25.6536  -77.5063 H         1 UNK         0.3047 
    118 H118      -81.2239   23.6193  -78.0752 H         1 UNK         0.0822 
    119 H119      -79.4557   23.7274  -79.8430 H         1 UNK         0.0807 
    120 H120      -79.6450   22.0800  -79.2652 H         1 UNK         0.0807 
    121 H121      -78.2701   23.0436  -78.7360 H         1 UNK         0.0807 
    122 H122      -79.1633   22.9524  -76.0733 H         1 UNK         0.2946 
    123 H123      -81.3638   20.8597  -74.3290 H         1 UNK         0.1144 
    124 H124      -80.2373   19.1335  -75.7343 H         1 UNK         0.0793 
    125 H125      -79.4266   19.2948  -74.1856 H         1 UNK         0.0793 
    126 H126      -78.7156   20.0078  -75.6340 H         1 UNK         0.0793 
    127 H127      -78.6357   21.8528  -73.9898 H         1 UNK         0.2896 
@<TRIPOS>BOND
     1    1    2 1    
     2    1   67 1    
     3    1   68 1    
     4    1   69 1    
     5    2    3 2    
     6    2    4 am   BACKBONE|DICT|INTERRES
     7    4    5 1    
     8    4   70 1    
     9    5    6 1    
    10    5   65 1    
    11    5   71 1    
    12    6    7 1    
    13    6   72 1    
    14    6   73 1    
    15    7    8 1    
    16    8    9 1    
    17    8   74 1    
    18    8   75 1    
    19    9   10 ar   
    20    9   14 ar   
    21   10   11 ar   
    22   10   76 1    
    23   11   12 ar   
    24   11   48 1    
    25   12   13 ar   
    26   12   77 1    
    27   13   14 ar   
    28   13   15 1    
    29   14   78 1    
    30   15   16 1    
    31   15   79 1    
    32   15   80 1    
    33   16   17 1    
    34   17   18 1    
    35   17   81 1    
    36   17   82 1    
    37   18   19 1    
    38   18   22 1    
    39   18   83 1    
    40   19   20 am   BACKBONE|DICT|INTERRES
    41   19   21 2    
    42   20   84 1    
    43   20   85 1    
    44   22   23 am   BACKBONE|DICT|INTERRES
    45   22   86 1    
    46   23   24 2    
    47   23   25 1    
    48   25   26 1    
    49   25   27 1    
    50   25   87 1    
    51   26   88 1    
    52   26   89 1    
    53   26   90 1    
    54   27   28 am   BACKBONE|DICT|INTERRES
    55   27   91 1    
    56   28   29 2    
    57   28   30 1    
    58   30   31 1    
    59   30   32 1    
    60   30   92 1    
    61   31   93 1    
    62   31   94 1    
    63   31   95 1    
    64   32   33 am   BACKBONE|DICT|INTERRES
    65   32   96 1    
    66   33   34 2    
    67   33   35 1    
    68   35   36 1    
    69   35   37 1    
    70   35   97 1    
    71   36   98 1    
    72   36   99 1    
    73   36  100 1    
    74   37   38 am   BACKBONE|DICT|INTERRES
    75   37  101 1    
    76   38   39 2    
    77   38   40 1    
    78   40   41 1    
    79   40   42 1    
    80   40  102 1    
    81   41  103 1    
    82   41  104 1    
    83   41  105 1    
    84   42   43 am   BACKBONE|DICT|INTERRES
    85   42  106 1    
    86   43   44 2    
    87   43   45 1    
    88   45   46 1    
    89   45   49 1    
    90   45  107 1    
    91   46   47 1    
    92   46  108 1    
    93   46  109 1    
    94   47   48 1    
    95   48  110 1    
    96   48  111 1    
    97   49   50 am   BACKBONE|DICT|INTERRES
    98   49  112 1    
    99   50   51 2    
   100   50   52 1    
   101   52   53 1    
   102   52   54 1    
   103   52  113 1    
   104   53  114 1    
   105   53  115 1    
   106   53  116 1    
   107   54   55 am   BACKBONE|DICT|INTERRES
   108   54  117 1    
   109   55   56 2    
   110   55   57 1    
   111   57   58 1    
   112   57   59 1    
   113   57  118 1    
   114   58  119 1    
   115   58  120 1    
   116   58  121 1    
   117   59   60 am   BACKBONE|DICT|INTERRES
   118   59  122 1    
   119   60   61 2    
   120   60   62 1    
   121   62   63 1    
   122   62   64 1    
   123   62  123 1    
   124   63  124 1    
   125   63  125 1    
   126   63  126 1    
   127   64   65 am   BACKBONE|DICT|INTERRES
   128   64  127 1    
   129   65   66 2    
@<TRIPOS>SUBSTRUCTURE
     1 UNK         1 GROUP             0       ****    0 ROOT    
