@<TRIPOS>MOLECULE
3R135
127   129    1
SMALL
USER_CHARGES


@<TRIPOS>ATOM
      1 CA        -79.4348   31.1314  -78.5430 C.3       0 UNK        -0.1998 
      2 C         -78.7064   30.0464  -77.7664 C.2       0 UNK         0.4909 
      3 O         -77.5086   29.8472  -77.9676 O.2       0 UNK        -0.5240 
      4 N         -79.4134   29.3435  -76.8741 N.am      1 UNK        -0.4739 
      5 CA        -78.8977   28.2305  -76.0703 C.3       1 UNK         0.0864 
      6 C6        -79.4966   28.2672  -74.6382 C.3       11 UNK        -0.0881 
      7 S7        -78.3907   27.4828  -73.4234 S.3       11 UNK        -0.2682 
      8 C8        -78.2074   28.8125  -72.1899 C.3       11 UNK         0.0289 
      9 C9        -77.2355   28.3762  -71.1093 C.ar      11 UNK        -0.0687 
     10 C10       -77.6325   27.4230  -70.1730 C.ar      11 UNK        -0.0823 
     11 C11       -76.7066   26.8698  -69.2867 C.ar      11 UNK        -0.0830 
     12 C12       -75.3928   27.3513  -69.2762 C.ar      11 UNK        -0.1021 
     13 C13       -74.9968   28.3555  -70.1679 C.ar      11 UNK        -0.0753 
     14 C14       -75.9251   28.8574  -71.0869 C.ar      11 UNK        -0.0933 
     15 C15       -73.5425   28.8113  -70.2111 C.3       11 UNK         0.0166 
     16 S16       -73.3525   30.6275  -70.2612 S.3       11 UNK        -0.2615 
     17 C17       -71.9851   30.8104  -71.4649 C.3       11 UNK        -0.0865 
     18 CA        -72.4103   31.4590  -72.8125 C.3       10 UNK         0.0862 
     19 C         -71.2085   31.4862  -73.8025 C.2       10 UNK         0.5551 
     20 N         -71.2201   30.7105  -74.8812 N.am      10 UNK        -0.7319 
     21 O         -70.2508   32.2236  -73.5828 O.2       10 UNK        -0.5018 
     22 N         -73.6313   30.8558  -73.3697 N.am      10 UNK        -0.4509 
     23 C         -74.3985   31.4172  -74.3118 C.2       10 UNK         0.4899 
     24 O         -74.1983   32.5316  -74.7986 O.2       10 UNK        -0.4839 
     25 CA        -75.5927   30.5775  -74.7989 C.3       9 UNK         0.0222 
     26 CB        -76.8716   31.4298  -74.8677 C.3       9 UNK        -0.1966 
     27 N         -75.3535   29.9385  -76.0965 N.am      9 UNK        -0.4218 
     28 C         -74.3389   29.1126  -76.3794 C.2       9 UNK         0.5020 
     29 O         -73.4351   28.8204  -75.5898 O.2       9 UNK        -0.5274 
     30 CA        -74.3306   28.4703  -77.7675 C.3       8 UNK         0.0270 
     31 CB        -73.2888   29.1317  -78.6840 C.3       8 UNK        -0.1976 
     32 N         -73.9881   27.0744  -77.5463 N.am      8 UNK        -0.4313 
     33 C         -74.5720   26.0199  -78.1198 C.2       8 UNK         0.5041 
     34 O         -75.3548   26.0880  -79.0672 O.2       8 UNK        -0.5577 
     35 CA        -74.2639   24.6545  -77.4818 C.3       7 UNK         0.0284 
     36 CB        -72.9668   24.0660  -78.0590 C.3       7 UNK        -0.1958 
     37 N         -74.1714   24.7132  -76.0158 N.am      7 UNK        -0.4454 
     38 C         -75.1734   25.0599  -75.1949 C.2       7 UNK         0.5089 
     39 O         -76.3077   25.3574  -75.5786 O.2       7 UNK        -0.5125 
     40 CA        -74.8474   25.0978  -73.6973 C.3       6 UNK         0.0408 
     41 CB        -74.4354   26.5152  -73.2812 C.3       6 UNK        -0.1791 
     42 N         -76.0319   24.7040  -72.9352 N.am      6 UNK        -0.4762 
     43 C         -76.1708   23.5363  -72.2903 C.2       6 UNK         0.5007 
     44 O         -75.2731   22.6994  -72.1850 O.2       6 UNK        -0.5032 
     45 CA        -77.5741   23.2049  -71.7535 C.3       5 UNK         0.0783 
     46 C46       -78.0060   23.9971  -70.4887 C.3       11 UNK        -0.0857 
     47 S47       -76.7710   24.0940  -69.1382 S.3       11 UNK        -0.2512 
     48 C48       -77.1214   25.7196  -68.3800 C.3       11 UNK         0.0225 
     49 N         -78.5024   23.3787  -72.8685 N.am      5 UNK        -0.4615 
     50 C         -79.7196   22.8376  -72.9751 C.2       4 UNK         0.5053 
     51 O         -80.2550   22.1694  -72.0907 O.2       4 UNK        -0.5105 
     52 CA        -80.4574   23.0687  -74.3083 C.3       4 UNK         0.0263 
     53 CB        -81.3967   24.2788  -74.1891 C.3       4 UNK        -0.1981 
     54 N         -79.5374   23.2626  -75.4386 N.am      4 UNK        -0.4224 
     55 C         -78.7594   22.2891  -75.9418 C.2       3 UNK         0.4895 
     56 O         -78.8406   21.1128  -75.5841 O.2       3 UNK        -0.5091 
     57 CA        -77.6654   22.6842  -76.9518 C.3       3 UNK         0.0250 
     58 CB        -77.3502   21.5720  -77.9761 C.3       3 UNK        -0.1996 
     59 N         -77.8817   23.9831  -77.5992 N.am      3 UNK        -0.4254 
     60 C         -78.7955   24.2877  -78.5307 C.2       2 UNK         0.5004 
     61 O         -79.6060   23.4792  -78.9870 O.2       2 UNK        -0.5226 
     62 CA        -78.8051   25.7486  -79.0306 C.3       2 UNK         0.0269 
     63 CB        -80.1088   26.1072  -79.7752 C.3       2 UNK        -0.1926 
     64 N         -78.5359   26.7622  -77.9989 N.am      2 UNK        -0.4687 
     65 C         -79.1714   26.9133  -76.8269 C.2       1 UNK         0.5165 
     66 O         -79.9865   26.1015  -76.3880 O.2       1 UNK        -0.5079 
     67 H67       -80.4842   31.2031  -78.2577 H         1 UNK         0.0900 
     68 H68       -79.3861   30.9231  -79.6113 H         1 UNK         0.0900 
     69 H69       -78.9666   32.0985  -78.3621 H         1 UNK         0.0900 
     70 H70       -80.4024   29.5265  -76.7752 H         1 UNK         0.2959 
     71 H71       -77.8127   28.3244  -75.9824 H         1 UNK         0.1079 
     72 H72       -79.6520   29.3025  -74.3311 H         1 UNK         0.0837 
     73 H73       -80.4844   27.8057  -74.5855 H         1 UNK         0.0837 
     74 H74       -77.8598   29.7248  -72.6749 H         1 UNK         0.0685 
     75 H75       -79.1785   29.0398  -71.7476 H         1 UNK         0.0685 
     76 H76       -78.6524   27.0646  -70.1871 H         1 UNK         0.1434 
     77 H77       -74.6718   26.9188  -68.5958 H         1 UNK         0.1329 
     78 H78       -75.6177   29.6016  -71.8045 H         1 UNK         0.1335 
     79 H79       -72.9913   28.4330  -69.3487 H         1 UNK         0.0680 
     80 H80       -73.0846   28.3578  -71.0899 H         1 UNK         0.0680 
     81 H81       -71.5110   29.8431  -71.6396 H         1 UNK         0.1032 
     82 H82       -71.2154   31.4237  -70.9920 H         1 UNK         0.1032 
     83 H83       -72.6491   32.5030  -72.5997 H         1 UNK         0.0461 
     84 H84       -72.0024   30.0889  -75.0609 H         1 UNK         0.3453 
     85 H85       -70.4386   30.7341  -75.5161 H         1 UNK         0.3453 
     86 H86       -73.8258   29.9099  -73.0805 H         1 UNK         0.2984 
     87 H87       -75.7691   29.7753  -74.0815 H         1 UNK         0.0554 
     88 H88       -77.7527   30.8136  -75.0345 H         1 UNK         0.0847 
     89 H89       -76.8218   32.1701  -75.6671 H         1 UNK         0.0847 
     90 H90       -77.0336   31.9698  -73.9337 H         1 UNK         0.0847 
     91 H91       -76.0580   30.0909  -76.8160 H         1 UNK         0.3141 
     92 H92       -75.3201   28.5479  -78.2197 H         1 UNK         0.0743 
     93 H93       -72.2873   29.0919  -78.2531 H         1 UNK         0.0784 
     94 H94       -73.2541   28.6429  -79.6578 H         1 UNK         0.0784 
     95 H95       -73.5318   30.1813  -78.8541 H         1 UNK         0.0784 
     96 H96       -73.3992   26.9265  -76.7360 H         1 UNK         0.3213 
     97 H97       -75.0801   23.9792  -77.7412 H         1 UNK         0.0855 
     98 H98       -72.0980   24.6783  -77.8142 H         1 UNK         0.0814 
     99 H99       -73.0211   23.9985  -79.1467 H         1 UNK         0.0814 
    100 H100      -72.7859   23.0587  -77.6835 H         1 UNK         0.0814 
    101 H101      -73.2762   24.4775  -75.6109 H         1 UNK         0.3105 
    102 H102      -74.0134   24.4224  -73.4964 H         1 UNK         0.0547 
    103 H103      -73.5209   26.8244  -73.7879 H         1 UNK         0.0837 
    104 H104      -75.2073   27.2491  -73.5167 H         1 UNK         0.0837 
    105 H105      -74.2423   26.5582  -72.2108 H         1 UNK         0.0837 
    106 H106      -76.8158   25.3410  -72.9961 H         1 UNK         0.3020 
    107 H107      -77.5621   22.1440  -71.4922 H         1 UNK         0.1245 
    108 H108      -78.9123   23.5544  -70.0731 H         1 UNK         0.0781 
    109 H109      -78.2921   24.9975  -70.7966 H         1 UNK         0.0781 
    110 H110      -76.5857   25.7891  -67.4322 H         1 UNK         0.0836 
    111 H111      -78.1825   25.7862  -68.1340 H         1 UNK         0.0836 
    112 H112      -78.1374   23.8807  -73.6658 H         1 UNK         0.3022 
    113 H113      -81.0644   22.1838  -74.5108 H         1 UNK         0.0747 
    114 H114      -81.9506   24.4446  -75.1133 H         1 UNK         0.0793 
    115 H115      -82.1282   24.1285  -73.3940 H         1 UNK         0.0793 
    116 H116      -80.8483   25.1933  -73.9585 H         1 UNK         0.0793 
    117 H117      -79.4661   24.2047  -75.8129 H         1 UNK         0.3047 
    118 H118      -76.7667   22.8073  -76.3480 H         1 UNK         0.0822 
    119 H119      -76.5686   21.8801  -78.6704 H         1 UNK         0.0807 
    120 H120      -78.2283   21.2930  -78.5588 H         1 UNK         0.0807 
    121 H121      -76.9980   20.6691  -77.4758 H         1 UNK         0.0807 
    122 H122      -77.3156   24.7405  -77.2272 H         1 UNK         0.2946 
    123 H123      -77.9864   25.8178  -79.7490 H         1 UNK         0.1144 
    124 H124      -80.2699   25.4480  -80.6292 H         1 UNK         0.0793 
    125 H125      -80.0795   27.1272  -80.1585 H         1 UNK         0.0793 
    126 H126      -80.9797   26.0181  -79.1246 H         1 UNK         0.0793 
    127 H127      -77.8692   27.4775  -78.2613 H         1 UNK         0.2896 
@<TRIPOS>BOND
     1    1    2 1    
     2    1   67 1    
     3    1   68 1    
     4    1   69 1    
     5    2    3 2    
     6    2    4 am   BACKBONE|DICT|INTERRES
     7    4    5 1    
     8    4   70 1    
     9    5    6 1    
    10    5   65 1    
    11    5   71 1    
    12    6    7 1    
    13    6   72 1    
    14    6   73 1    
    15    7    8 1    
    16    8    9 1    
    17    8   74 1    
    18    8   75 1    
    19    9   10 ar   
    20    9   14 ar   
    21   10   11 ar   
    22   10   76 1    
    23   11   12 ar   
    24   11   48 1    
    25   12   13 ar   
    26   12   77 1    
    27   13   14 ar   
    28   13   15 1    
    29   14   78 1    
    30   15   16 1    
    31   15   79 1    
    32   15   80 1    
    33   16   17 1    
    34   17   18 1    
    35   17   81 1    
    36   17   82 1    
    37   18   19 1    
    38   18   22 1    
    39   18   83 1    
    40   19   20 am   BACKBONE|DICT|INTERRES
    41   19   21 2    
    42   20   84 1    
    43   20   85 1    
    44   22   23 am   BACKBONE|DICT|INTERRES
    45   22   86 1    
    46   23   24 2    
    47   23   25 1    
    48   25   26 1    
    49   25   27 1    
    50   25   87 1    
    51   26   88 1    
    52   26   89 1    
    53   26   90 1    
    54   27   28 am   BACKBONE|DICT|INTERRES
    55   27   91 1    
    56   28   29 2    
    57   28   30 1    
    58   30   31 1    
    59   30   32 1    
    60   30   92 1    
    61   31   93 1    
    62   31   94 1    
    63   31   95 1    
    64   32   33 am   BACKBONE|DICT|INTERRES
    65   32   96 1    
    66   33   34 2    
    67   33   35 1    
    68   35   36 1    
    69   35   37 1    
    70   35   97 1    
    71   36   98 1    
    72   36   99 1    
    73   36  100 1    
    74   37   38 am   BACKBONE|DICT|INTERRES
    75   37  101 1    
    76   38   39 2    
    77   38   40 1    
    78   40   41 1    
    79   40   42 1    
    80   40  102 1    
    81   41  103 1    
    82   41  104 1    
    83   41  105 1    
    84   42   43 am   BACKBONE|DICT|INTERRES
    85   42  106 1    
    86   43   44 2    
    87   43   45 1    
    88   45   46 1    
    89   45   49 1    
    90   45  107 1    
    91   46   47 1    
    92   46  108 1    
    93   46  109 1    
    94   47   48 1    
    95   48  110 1    
    96   48  111 1    
    97   49   50 am   BACKBONE|DICT|INTERRES
    98   49  112 1    
    99   50   51 2    
   100   50   52 1    
   101   52   53 1    
   102   52   54 1    
   103   52  113 1    
   104   53  114 1    
   105   53  115 1    
   106   53  116 1    
   107   54   55 am   BACKBONE|DICT|INTERRES
   108   54  117 1    
   109   55   56 2    
   110   55   57 1    
   111   57   58 1    
   112   57   59 1    
   113   57  118 1    
   114   58  119 1    
   115   58  120 1    
   116   58  121 1    
   117   59   60 am   BACKBONE|DICT|INTERRES
   118   59  122 1    
   119   60   61 2    
   120   60   62 1    
   121   62   63 1    
   122   62   64 1    
   123   62  123 1    
   124   63  124 1    
   125   63  125 1    
   126   63  126 1    
   127   64   65 am   BACKBONE|DICT|INTERRES
   128   64  127 1    
   129   65   66 2    
@<TRIPOS>SUBSTRUCTURE
     1 UNK         1 GROUP             0       ****    0 ROOT    
