@<TRIPOS>MOLECULE
3R135
127   129    1
SMALL
USER_CHARGES


@<TRIPOS>ATOM
      1 CA        -75.9361   29.0710  -75.8001 C.3       0 UNK        -0.1998 
      2 C         -77.0158   28.3505  -75.0130 C.2       0 UNK         0.4909 
      3 O         -76.8925   27.1486  -74.7793 O.2       0 UNK        -0.5240 
      4 N         -78.0614   29.0802  -74.6053 N.am      1 UNK        -0.4739 
      5 CA        -79.2298   28.5414  -73.9090 C.3       1 UNK         0.0864 
      6 C6        -80.0269   29.6713  -73.2059 C.3       11 UNK        -0.0881 
      7 S7        -81.1686   29.0457  -71.9238 S.3       11 UNK        -0.2682 
      8 C8        -80.1948   29.2805  -70.4009 C.3       11 UNK         0.0289 
      9 C9        -78.8972   28.4883  -70.4419 C.ar      11 UNK        -0.0687 
     10 C10       -78.9234   27.0942  -70.3534 C.ar      11 UNK        -0.0823 
     11 C11       -77.7436   26.3524  -70.4614 C.ar      11 UNK        -0.0830 
     12 C12       -76.5262   27.0210  -70.6379 C.ar      11 UNK        -0.1021 
     13 C13       -76.4838   28.4193  -70.7003 C.ar      11 UNK        -0.0753 
     14 C14       -77.6739   29.1455  -70.5992 C.ar      11 UNK        -0.0933 
     15 C15       -75.1549   29.1519  -70.8426 C.3       11 UNK         0.0166 
     16 S16       -75.0614   30.1267  -72.3787 S.3       11 UNK        -0.2615 
     17 C17       -73.3433   30.7311  -72.2729 C.3       11 UNK        -0.0865 
     18 CA        -72.9704   31.7403  -73.3934 C.3       10 UNK         0.0862 
     19 C         -71.5419   32.3184  -73.1644 C.2       10 UNK         0.5551 
     20 N         -70.5846   32.1313  -74.0672 N.am      10 UNK        -0.7319 
     21 O         -71.3003   32.9620  -72.1460 O.2       10 UNK        -0.5018 
     22 N         -73.1693   31.1829  -74.7417 N.am      10 UNK        -0.4509 
     23 C         -73.3885   31.9249  -75.8380 C.2       10 UNK         0.4899 
     24 O         -73.5646   33.1439  -75.8013 O.2       10 UNK        -0.4839 
     25 CA        -73.4267   31.2043  -77.2061 C.3       9 UNK         0.0222 
     26 CB        -72.9392   32.1100  -78.3579 C.3       9 UNK        -0.1966 
     27 N         -72.7254   29.9131  -77.2340 N.am      9 UNK        -0.4218 
     28 C         -71.4258   29.6937  -76.9846 C.2       9 UNK         0.5020 
     29 O         -70.6203   30.5855  -76.7066 O.2       9 UNK        -0.5274 
     30 CA        -70.9768   28.2164  -76.9999 C.3       8 UNK         0.0270 
     31 CB        -69.5539   28.0301  -76.4323 C.3       8 UNK        -0.1976 
     32 N         -71.9063   27.3011  -76.3162 N.am      8 UNK        -0.4313 
     33 C         -72.4071   27.4266  -75.0788 C.2       8 UNK         0.5041 
     34 O         -72.2494   28.4270  -74.3796 O.2       8 UNK        -0.5577 
     35 CA        -73.2280   26.2417  -74.5399 C.3       7 UNK         0.0284 
     36 CB        -73.7409   26.4738  -73.1074 C.3       7 UNK        -0.1958 
     37 N         -74.3713   25.8935  -75.3831 N.am      7 UNK        -0.4454 
     38 C         -74.3227   25.1676  -76.5061 C.2       7 UNK         0.5089 
     39 O         -73.2722   24.8905  -77.0897 O.2       7 UNK        -0.5125 
     40 CA        -75.6760   24.6294  -77.0208 C.3       6 UNK         0.0408 
     41 CB        -75.5142   23.5343  -78.0938 C.3       6 UNK        -0.1791 
     42 N         -76.5463   24.1504  -75.9358 N.am      6 UNK        -0.4762 
     43 C         -76.2355   23.2704  -74.9672 C.2       6 UNK         0.5007 
     44 O         -75.1687   22.6586  -74.8964 O.2       6 UNK        -0.5032 
     45 CA        -77.3083   23.0367  -73.8932 C.3       5 UNK         0.0783 
     46 C46       -77.6428   24.3508  -73.1408 C.3       11 UNK        -0.0857 
     47 S47       -78.7492   24.0791  -71.7208 S.3       11 UNK        -0.2512 
     48 C48       -77.7917   24.8317  -70.3629 C.3       11 UNK         0.0225 
     49 N         -78.4776   22.4307  -74.5292 N.am      5 UNK        -0.4615 
     50 C         -78.6416   21.1149  -74.7230 C.2       4 UNK         0.5053 
     51 O         -77.8566   20.2619  -74.3079 O.2       4 UNK        -0.5105 
     52 CA        -79.8925   20.6558  -75.4978 C.3       4 UNK         0.0263 
     53 CB        -80.9778   20.1757  -74.5201 C.3       4 UNK        -0.1981 
     54 N         -80.4557   21.6975  -76.3581 N.am      4 UNK        -0.4224 
     55 C         -79.9155   22.1216  -77.5100 C.2       3 UNK         0.4895 
     56 O         -78.9358   21.5999  -78.0423 O.2       3 UNK        -0.5091 
     57 CA        -80.5621   23.3611  -78.1614 C.3       3 UNK         0.0250 
     58 CB        -81.5770   22.9382  -79.2356 C.3       3 UNK        -0.1996 
     59 N         -81.2154   24.2601  -77.1985 N.am      3 UNK        -0.4254 
     60 C         -80.5747   24.8944  -76.2068 C.2       2 UNK         0.5004 
     61 O         -79.3592   24.8043  -76.0223 O.2       2 UNK        -0.5226 
     62 CA        -81.4464   25.6731  -75.2075 C.3       2 UNK         0.0269 
     63 CB        -82.1471   24.6997  -74.2438 C.3       2 UNK        -0.1926 
     64 N         -80.6532   26.6120  -74.4133 N.am      2 UNK        -0.4687 
     65 C         -80.1110   27.7396  -74.8877 C.2       1 UNK         0.5165 
     66 O         -80.3067   28.1672  -76.0295 O.2       1 UNK        -0.5079 
     67 H67       -75.8440   28.6383  -76.7956 H         1 UNK         0.0900 
     68 H68       -74.9812   28.9703  -75.2874 H         1 UNK         0.0900 
     69 H69       -76.1559   30.1332  -75.9023 H         1 UNK         0.0900 
     70 H70       -78.1119   30.0570  -74.8539 H         1 UNK         0.2959 
     71 H71       -78.8507   27.8527  -73.1509 H         1 UNK         0.1079 
     72 H72       -79.3412   30.3781  -72.7359 H         1 UNK         0.0837 
     73 H73       -80.5973   30.2565  -73.9300 H         1 UNK         0.0837 
     74 H74       -79.9998   30.3444  -70.2574 H         1 UNK         0.0685 
     75 H75       -80.7894   28.9583  -69.5449 H         1 UNK         0.0685 
     76 H76       -79.8685   26.5834  -70.2267 H         1 UNK         0.1434 
     77 H77       -75.6089   26.4537  -70.7116 H         1 UNK         0.1329 
     78 H78       -77.6445   30.2248  -70.6600 H         1 UNK         0.1335 
     79 H79       -75.0225   29.8167  -69.9879 H         1 UNK         0.0680 
     80 H80       -74.3232   28.4464  -70.8176 H         1 UNK         0.0680 
     81 H81       -72.6684   29.8741  -72.2895 H         1 UNK         0.1032 
     82 H82       -73.2154   31.1956  -71.2931 H         1 UNK         0.1032 
     83 H83       -73.6495   32.5882  -73.2854 H         1 UNK         0.0461 
     84 H84       -70.7607   31.5999  -74.9129 H         1 UNK         0.3453 
     85 H85       -69.6693   32.5176  -73.9014 H         1 UNK         0.3453 
     86 H86       -72.9721   30.1895  -74.8271 H         1 UNK         0.2984 
     87 H87       -74.4759   30.9821  -77.3994 H         1 UNK         0.0554 
     88 H88       -73.5594   33.0028  -78.4464 H         1 UNK         0.0847 
     89 H89       -72.9836   31.5933  -79.3166 H         1 UNK         0.0847 
     90 H90       -71.9125   32.4436  -78.2038 H         1 UNK         0.0847 
     91 H91       -73.2987   29.1052  -77.4312 H         1 UNK         0.3141 
     92 H92       -70.9582   27.9148  -78.0482 H         1 UNK         0.0743 
     93 H93       -69.2351   26.9895  -76.4926 H         1 UNK         0.0784 
     94 H94       -69.4957   28.3388  -75.3876 H         1 UNK         0.0784 
     95 H95       -68.8269   28.6227  -76.9892 H         1 UNK         0.0784 
     96 H96       -72.1510   26.4482  -76.8153 H         1 UNK         0.3213 
     97 H97       -72.5512   25.3850  -74.5075 H         1 UNK         0.0855 
     98 H98       -74.4786   27.2755  -73.0769 H         1 UNK         0.0814 
     99 H99       -72.9283   26.7466  -72.4329 H         1 UNK         0.0814 
    100 H100      -74.2074   25.5749  -72.7049 H         1 UNK         0.0814 
    101 H101      -75.2909   26.1566  -75.0326 H         1 UNK         0.3105 
    102 H102      -76.1918   25.4751  -77.4775 H         1 UNK         0.0547 
    103 H103      -74.9618   23.9086  -78.9564 H         1 UNK         0.0837 
    104 H104      -74.9721   22.6702  -77.7086 H         1 UNK         0.0837 
    105 H105      -76.4829   23.1876  -78.4543 H         1 UNK         0.0837 
    106 H106      -77.4722   24.5750  -75.9036 H         1 UNK         0.3020 
    107 H107      -76.8904   22.3365  -73.1657 H         1 UNK         0.1245 
    108 H108      -78.1260   25.0733  -73.7971 H         1 UNK         0.0781 
    109 H109      -76.7267   24.8334  -72.7953 H         1 UNK         0.0781 
    110 H110      -76.7876   24.4050  -70.3467 H         1 UNK         0.0836 
    111 H111      -78.2541   24.5556  -69.4143 H         1 UNK         0.0836 
    112 H112      -79.1179   23.0813  -74.9669 H         1 UNK         0.3022 
    113 H113      -79.5989   19.8123  -76.1265 H         1 UNK         0.0747 
    114 H114      -81.8463   19.7849  -75.0506 H         1 UNK         0.0793 
    115 H115      -80.6016   19.3735  -73.8835 H         1 UNK         0.0793 
    116 H116      -81.3158   20.9795  -73.8645 H         1 UNK         0.0793 
    117 H117      -81.2769   22.1731  -76.0155 H         1 UNK         0.3047 
    118 H118      -79.7616   23.9234  -78.6475 H         1 UNK         0.0822 
    119 H119      -81.9751   23.8020  -79.7683 H         1 UNK         0.0807 
    120 H120      -82.4167   22.3903  -78.8062 H         1 UNK         0.0807 
    121 H121      -81.1106   22.2893  -79.9785 H         1 UNK         0.0807 
    122 H122      -82.2157   24.3709  -77.2885 H         1 UNK         0.2946 
    123 H123      -82.1983   26.2361  -75.7654 H         1 UNK         0.1144 
    124 H124      -82.7705   25.2342  -73.5265 H         1 UNK         0.0793 
    125 H125      -81.4292   24.1017  -73.6800 H         1 UNK         0.0793 
    126 H126      -82.7994   24.0093  -74.7798 H         1 UNK         0.0793 
    127 H127      -80.4365   26.3297  -73.4684 H         1 UNK         0.2896 
@<TRIPOS>BOND
     1    1    2 1    
     2    1   67 1    
     3    1   68 1    
     4    1   69 1    
     5    2    3 2    
     6    2    4 am   BACKBONE|DICT|INTERRES
     7    4    5 1    
     8    4   70 1    
     9    5    6 1    
    10    5   65 1    
    11    5   71 1    
    12    6    7 1    
    13    6   72 1    
    14    6   73 1    
    15    7    8 1    
    16    8    9 1    
    17    8   74 1    
    18    8   75 1    
    19    9   10 ar   
    20    9   14 ar   
    21   10   11 ar   
    22   10   76 1    
    23   11   12 ar   
    24   11   48 1    
    25   12   13 ar   
    26   12   77 1    
    27   13   14 ar   
    28   13   15 1    
    29   14   78 1    
    30   15   16 1    
    31   15   79 1    
    32   15   80 1    
    33   16   17 1    
    34   17   18 1    
    35   17   81 1    
    36   17   82 1    
    37   18   19 1    
    38   18   22 1    
    39   18   83 1    
    40   19   20 am   BACKBONE|DICT|INTERRES
    41   19   21 2    
    42   20   84 1    
    43   20   85 1    
    44   22   23 am   BACKBONE|DICT|INTERRES
    45   22   86 1    
    46   23   24 2    
    47   23   25 1    
    48   25   26 1    
    49   25   27 1    
    50   25   87 1    
    51   26   88 1    
    52   26   89 1    
    53   26   90 1    
    54   27   28 am   BACKBONE|DICT|INTERRES
    55   27   91 1    
    56   28   29 2    
    57   28   30 1    
    58   30   31 1    
    59   30   32 1    
    60   30   92 1    
    61   31   93 1    
    62   31   94 1    
    63   31   95 1    
    64   32   33 am   BACKBONE|DICT|INTERRES
    65   32   96 1    
    66   33   34 2    
    67   33   35 1    
    68   35   36 1    
    69   35   37 1    
    70   35   97 1    
    71   36   98 1    
    72   36   99 1    
    73   36  100 1    
    74   37   38 am   BACKBONE|DICT|INTERRES
    75   37  101 1    
    76   38   39 2    
    77   38   40 1    
    78   40   41 1    
    79   40   42 1    
    80   40  102 1    
    81   41  103 1    
    82   41  104 1    
    83   41  105 1    
    84   42   43 am   BACKBONE|DICT|INTERRES
    85   42  106 1    
    86   43   44 2    
    87   43   45 1    
    88   45   46 1    
    89   45   49 1    
    90   45  107 1    
    91   46   47 1    
    92   46  108 1    
    93   46  109 1    
    94   47   48 1    
    95   48  110 1    
    96   48  111 1    
    97   49   50 am   BACKBONE|DICT|INTERRES
    98   49  112 1    
    99   50   51 2    
   100   50   52 1    
   101   52   53 1    
   102   52   54 1    
   103   52  113 1    
   104   53  114 1    
   105   53  115 1    
   106   53  116 1    
   107   54   55 am   BACKBONE|DICT|INTERRES
   108   54  117 1    
   109   55   56 2    
   110   55   57 1    
   111   57   58 1    
   112   57   59 1    
   113   57  118 1    
   114   58  119 1    
   115   58  120 1    
   116   58  121 1    
   117   59   60 am   BACKBONE|DICT|INTERRES
   118   59  122 1    
   119   60   61 2    
   120   60   62 1    
   121   62   63 1    
   122   62   64 1    
   123   62  123 1    
   124   63  124 1    
   125   63  125 1    
   126   63  126 1    
   127   64   65 am   BACKBONE|DICT|INTERRES
   128   64  127 1    
   129   65   66 2    
@<TRIPOS>SUBSTRUCTURE
     1 UNK         1 GROUP             0       ****    0 ROOT    
