@<TRIPOS>MOLECULE
3R135
127   129    1
SMALL
USER_CHARGES


@<TRIPOS>ATOM
      1 CA        -83.8537   25.1681  -69.7808 C.3       0 UNK        -0.1998 
      2 C         -82.3378   25.2762  -69.6378 C.2       0 UNK         0.4909 
      3 O         -81.7714   24.6580  -68.7386 O.2       0 UNK        -0.5240 
      4 N         -81.6357   26.0423  -70.4853 N.am      1 UNK        -0.4739 
      5 CA        -82.1546   26.8170  -71.6239 C.3       1 UNK         0.0864 
      6 C6        -81.1672   27.9312  -72.0521 C.3       11 UNK        -0.0881 
      7 S7        -80.8313   29.1334  -70.7175 S.3       11 UNK        -0.2682 
      8 C8        -80.4768   30.6535  -71.6604 C.3       11 UNK         0.0289 
      9 C9        -79.1662   30.5446  -72.4268 C.ar      11 UNK        -0.0687 
     10 C10       -79.1601   30.0523  -73.7349 C.ar      11 UNK        -0.0823 
     11 C11       -77.9569   29.8771  -74.4226 C.ar      11 UNK        -0.0830 
     12 C12       -76.7578   30.2601  -73.8174 C.ar      11 UNK        -0.1021 
     13 C13       -76.7507   30.7689  -72.5156 C.ar      11 UNK        -0.0753 
     14 C14       -77.9575   30.9070  -71.8218 C.ar      11 UNK        -0.0933 
     15 C15       -75.4276   31.1344  -71.8629 C.3       11 UNK         0.0166 
     16 S16       -74.4776   29.6331  -71.4710 S.3       11 UNK        -0.2615 
     17 C17       -72.8147   30.3109  -71.1347 C.3       11 UNK        -0.0865 
     18 CA        -72.0918   30.9344  -72.3642 C.3       10 UNK         0.0862 
     19 C         -70.6034   31.2397  -72.0201 C.2       10 UNK         0.5551 
     20 N         -69.6278   30.5676  -72.6220 N.am      10 UNK        -0.7319 
     21 O         -70.3334   32.1028  -71.1887 O.2       10 UNK        -0.5018 
     22 N         -72.2848   30.1446  -73.5899 N.am      10 UNK        -0.4509 
     23 C         -72.0341   30.5706  -74.8348 C.2       10 UNK         0.4899 
     24 O         -71.6968   31.7242  -75.1051 O.2       10 UNK        -0.4839 
     25 CA        -72.1880   29.5332  -75.9668 C.3       9 UNK         0.0222 
     26 CB        -71.2496   29.8143  -77.1585 C.3       9 UNK        -0.1966 
     27 N         -72.0474   28.1406  -75.5213 N.am      9 UNK        -0.4218 
     28 C         -70.9904   27.5705  -74.9199 C.2       9 UNK         0.5020 
     29 O         -69.9543   28.1695  -74.6267 O.2       9 UNK        -0.5274 
     30 CA        -71.1323   26.0859  -74.5540 C.3       8 UNK         0.0270 
     31 CB        -71.8995   25.9317  -73.2295 C.3       8 UNK        -0.1976 
     32 N         -71.8215   25.3406  -75.6095 N.am      8 UNK        -0.4313 
     33 C         -71.2111   24.7562  -76.6501 C.2       8 UNK         0.5041 
     34 O         -69.9883   24.7111  -76.7912 O.2       8 UNK        -0.5577 
     35 CA        -72.1126   24.1133  -77.7203 C.3       7 UNK         0.0284 
     36 CB        -72.3684   22.6338  -77.3916 C.3       7 UNK        -0.1958 
     37 N         -73.3917   24.8118  -77.8745 N.am      7 UNK        -0.4454 
     38 C         -73.5210   26.0172  -78.4517 C.2       7 UNK         0.5089 
     39 O         -72.5912   26.6131  -78.9952 O.2       7 UNK        -0.5125 
     40 CA        -74.9055   26.6937  -78.4028 C.3       6 UNK         0.0408 
     41 CB        -75.6369   26.5180  -79.7424 C.3       6 UNK        -0.1791 
     42 N         -75.7745   26.2207  -77.3232 N.am      6 UNK        -0.4762 
     43 C         -75.5059   26.2921  -76.0111 C.2       6 UNK         0.5007 
     44 O         -74.4773   26.7898  -75.5531 O.2       6 UNK        -0.5032 
     45 CA        -76.5269   25.6502  -75.0492 C.3       5 UNK         0.0783 
     46 C46       -77.4930   26.7140  -74.4746 C.3       11 UNK        -0.0857 
     47 S47       -78.5901   27.5050  -75.7160 S.3       11 UNK        -0.2512 
     48 C48       -77.9451   29.2106  -75.7908 C.3       11 UNK         0.0225 
     49 N         -77.2476   24.4995  -75.6103 N.am      5 UNK        -0.4615 
     50 C         -76.6931   23.4164  -76.1804 C.2       4 UNK         0.5053 
     51 O         -75.4766   23.2555  -76.2849 O.2       4 UNK        -0.5105 
     52 CA        -77.6321   22.3377  -76.7587 C.3       4 UNK         0.0263 
     53 CB        -77.6161   21.0839  -75.8697 C.3       4 UNK        -0.1981 
     54 N         -79.0182   22.7789  -76.9327 N.am      4 UNK        -0.4224 
     55 C         -79.4296   23.7550  -77.7542 C.2       3 UNK         0.4895 
     56 O         -78.6902   24.3226  -78.5597 O.2       3 UNK        -0.5091 
     57 CA        -80.9000   24.2062  -77.6353 C.3       3 UNK         0.0250 
     58 CB        -81.7153   23.6845  -78.8300 C.3       3 UNK        -0.1996 
     59 N         -81.5910   23.8389  -76.3873 N.am      3 UNK        -0.4254 
     60 C         -81.2042   24.1658  -75.1451 C.2       2 UNK         0.5004 
     61 O         -80.1309   24.7092  -74.8813 O.2       2 UNK        -0.5226 
     62 CA        -82.1435   23.7627  -73.9973 C.3       2 UNK         0.0269 
     63 CB        -81.8207   22.3384  -73.5164 C.3       2 UNK        -0.1926 
     64 N         -82.0099   24.6862  -72.8681 N.am      2 UNK        -0.4687 
     65 C         -82.5093   25.9304  -72.8397 C.2       1 UNK         0.5165 
     66 O         -83.2378   26.3864  -73.7222 O.2       1 UNK        -0.5079 
     67 H67       -84.2680   24.5574  -68.9788 H         1 UNK         0.0900 
     68 H68       -84.3247   26.1486  -69.7210 H         1 UNK         0.0900 
     69 H69       -84.1277   24.6991  -70.7250 H         1 UNK         0.0900 
     70 H70       -80.6386   26.1187  -70.3429 H         1 UNK         0.2959 
     71 H71       -83.0804   27.3074  -71.3172 H         1 UNK         0.1079 
     72 H72       -80.2184   27.5054  -72.3860 H         1 UNK         0.0837 
     73 H73       -81.5757   28.4753  -72.9056 H         1 UNK         0.0837 
     74 H74       -80.4296   31.4944  -70.9669 H         1 UNK         0.0685 
     75 H75       -81.3028   30.8672  -72.3406 H         1 UNK         0.0685 
     76 H76       -80.0870   29.7551  -74.2051 H         1 UNK         0.1434 
     77 H77       -75.8202   30.1234  -74.3395 H         1 UNK         0.1329 
     78 H78       -77.9564   31.2793  -70.8065 H         1 UNK         0.1335 
     79 H79       -75.5833   31.7146  -70.9521 H         1 UNK         0.0680 
     80 H80       -74.8640   31.7685  -72.5476 H         1 UNK         0.0680 
     81 H81       -72.2201   29.4906  -70.7274 H         1 UNK         0.1032 
     82 H82       -72.8936   31.0462  -70.3315 H         1 UNK         0.1032 
     83 H83       -72.5504   31.9068  -72.5503 H         1 UNK         0.0461 
     84 H84       -69.8365   29.8504  -73.3065 H         1 UNK         0.3453 
     85 H85       -68.6696   30.7764  -72.3909 H         1 UNK         0.3453 
     86 H86       -72.5787   29.1890  -73.4568 H         1 UNK         0.2984 
     87 H87       -73.2142   29.6288  -76.3245 H         1 UNK         0.0554 
     88 H88       -71.4446   30.7966  -77.5905 H         1 UNK         0.0847 
     89 H89       -71.3881   29.0802  -77.9525 H         1 UNK         0.0847 
     90 H90       -70.2010   29.7921  -76.8602 H         1 UNK         0.0847 
     91 H91       -72.8887   27.5747  -75.6298 H         1 UNK         0.3141 
     92 H92       -70.1294   25.6772  -74.4122 H         1 UNK         0.0743 
     93 H93       -71.3979   26.4703  -72.4241 H         1 UNK         0.0784 
     94 H94       -72.9167   26.3198  -73.2964 H         1 UNK         0.0784 
     95 H95       -71.9606   24.8857  -72.9287 H         1 UNK         0.0784 
     96 H96       -72.8330   25.3679  -75.5991 H         1 UNK         0.3213 
     97 H97       -71.5807   24.1609  -78.6733 H         1 UNK         0.0855 
     98 H98       -72.9832   22.1568  -78.1550 H         1 UNK         0.0814 
     99 H99       -71.4302   22.0800  -77.3376 H         1 UNK         0.0814 
    100 H100      -72.8721   22.5133  -76.4317 H         1 UNK         0.0814 
    101 H101      -74.2046   24.3790  -77.4458 H         1 UNK         0.3105 
    102 H102      -74.7374   27.7605  -78.2413 H         1 UNK         0.0547 
    103 H103      -75.8669   25.4704  -79.9414 H         1 UNK         0.0837 
    104 H104      -75.0292   26.8828  -80.5717 H         1 UNK         0.0837 
    105 H105      -76.5737   27.0754  -79.7596 H         1 UNK         0.0837 
    106 H106      -76.6451   25.7847  -77.5987 H         1 UNK         0.3020 
    107 H107      -75.9417   25.2568  -74.2153 H         1 UNK         0.1245 
    108 H108      -76.9234   27.4685  -73.9316 H         1 UNK         0.0781 
    109 H109      -78.1340   26.2522  -73.7222 H         1 UNK         0.0781 
    110 H110      -78.5556   29.7935  -76.4816 H         1 UNK         0.0836 
    111 H111      -76.9375   29.1901  -76.2094 H         1 UNK         0.0836 
    112 H112      -78.2606   24.5513  -75.5401 H         1 UNK         0.3022 
    113 H113      -77.2429   22.0680  -77.7426 H         1 UNK         0.0747 
    114 H114      -78.0117   21.2903  -74.8743 H         1 UNK         0.0793 
    115 H115      -78.2064   20.2784  -76.3071 H         1 UNK         0.0793 
    116 H116      -76.6001   20.7062  -75.7447 H         1 UNK         0.0793 
    117 H117      -79.6992   22.3835  -76.3017 H         1 UNK         0.3047 
    118 H118      -80.8900   25.2974  -77.6806 H         1 UNK         0.0822 
    119 H119      -82.7244   24.0973  -78.8346 H         1 UNK         0.0807 
    120 H120      -81.7955   22.5967  -78.8189 H         1 UNK         0.0807 
    121 H121      -81.2500   23.9669  -79.7757 H         1 UNK         0.0807 
    122 H122      -82.4721   23.3577  -76.5007 H         1 UNK         0.2946 
    123 H123      -83.1752   23.7932  -74.3558 H         1 UNK         0.1144 
    124 H124      -82.4828   22.0344  -72.7053 H         1 UNK         0.0793 
    125 H125      -80.7932   22.2556  -73.1592 H         1 UNK         0.0793 
    126 H126      -81.9454   21.6136  -74.3221 H         1 UNK         0.0793 
    127 H127      -81.3891   24.4070  -72.1223 H         1 UNK         0.2896 
@<TRIPOS>BOND
     1    1    2 1    
     2    1   67 1    
     3    1   68 1    
     4    1   69 1    
     5    2    3 2    
     6    2    4 am   BACKBONE|DICT|INTERRES
     7    4    5 1    
     8    4   70 1    
     9    5    6 1    
    10    5   65 1    
    11    5   71 1    
    12    6    7 1    
    13    6   72 1    
    14    6   73 1    
    15    7    8 1    
    16    8    9 1    
    17    8   74 1    
    18    8   75 1    
    19    9   10 ar   
    20    9   14 ar   
    21   10   11 ar   
    22   10   76 1    
    23   11   12 ar   
    24   11   48 1    
    25   12   13 ar   
    26   12   77 1    
    27   13   14 ar   
    28   13   15 1    
    29   14   78 1    
    30   15   16 1    
    31   15   79 1    
    32   15   80 1    
    33   16   17 1    
    34   17   18 1    
    35   17   81 1    
    36   17   82 1    
    37   18   19 1    
    38   18   22 1    
    39   18   83 1    
    40   19   20 am   BACKBONE|DICT|INTERRES
    41   19   21 2    
    42   20   84 1    
    43   20   85 1    
    44   22   23 am   BACKBONE|DICT|INTERRES
    45   22   86 1    
    46   23   24 2    
    47   23   25 1    
    48   25   26 1    
    49   25   27 1    
    50   25   87 1    
    51   26   88 1    
    52   26   89 1    
    53   26   90 1    
    54   27   28 am   BACKBONE|DICT|INTERRES
    55   27   91 1    
    56   28   29 2    
    57   28   30 1    
    58   30   31 1    
    59   30   32 1    
    60   30   92 1    
    61   31   93 1    
    62   31   94 1    
    63   31   95 1    
    64   32   33 am   BACKBONE|DICT|INTERRES
    65   32   96 1    
    66   33   34 2    
    67   33   35 1    
    68   35   36 1    
    69   35   37 1    
    70   35   97 1    
    71   36   98 1    
    72   36   99 1    
    73   36  100 1    
    74   37   38 am   BACKBONE|DICT|INTERRES
    75   37  101 1    
    76   38   39 2    
    77   38   40 1    
    78   40   41 1    
    79   40   42 1    
    80   40  102 1    
    81   41  103 1    
    82   41  104 1    
    83   41  105 1    
    84   42   43 am   BACKBONE|DICT|INTERRES
    85   42  106 1    
    86   43   44 2    
    87   43   45 1    
    88   45   46 1    
    89   45   49 1    
    90   45  107 1    
    91   46   47 1    
    92   46  108 1    
    93   46  109 1    
    94   47   48 1    
    95   48  110 1    
    96   48  111 1    
    97   49   50 am   BACKBONE|DICT|INTERRES
    98   49  112 1    
    99   50   51 2    
   100   50   52 1    
   101   52   53 1    
   102   52   54 1    
   103   52  113 1    
   104   53  114 1    
   105   53  115 1    
   106   53  116 1    
   107   54   55 am   BACKBONE|DICT|INTERRES
   108   54  117 1    
   109   55   56 2    
   110   55   57 1    
   111   57   58 1    
   112   57   59 1    
   113   57  118 1    
   114   58  119 1    
   115   58  120 1    
   116   58  121 1    
   117   59   60 am   BACKBONE|DICT|INTERRES
   118   59  122 1    
   119   60   61 2    
   120   60   62 1    
   121   62   63 1    
   122   62   64 1    
   123   62  123 1    
   124   63  124 1    
   125   63  125 1    
   126   63  126 1    
   127   64   65 am   BACKBONE|DICT|INTERRES
   128   64  127 1    
   129   65   66 2    
@<TRIPOS>SUBSTRUCTURE
     1 UNK         1 GROUP             0       ****    0 ROOT    
