@<TRIPOS>MOLECULE
3R135
127   129    1
SMALL
USER_CHARGES


@<TRIPOS>ATOM
      1 CA        -84.1785   25.8098  -72.6134 C.3       0 UNK        -0.1998 
      2 C         -83.8420   27.1792  -73.1989 C.2       0 UNK         0.4909 
      3 O         -84.7602   27.9026  -73.5799 O.2       0 UNK        -0.5240 
      4 N         -82.5701   27.5976  -73.3026 N.am      1 UNK        -0.4739 
      5 CA        -81.3188   26.9073  -72.9356 C.3       1 UNK         0.0864 
      6 C6        -81.1907   26.5325  -71.4304 C.3       11 UNK        -0.0881 
      7 S7        -81.5607   27.9309  -70.3157 S.3       11 UNK        -0.2682 
      8 C8        -79.9201   28.3180  -69.6148 C.3       11 UNK         0.0289 
      9 C9        -78.8943   28.8110  -70.6342 C.ar      11 UNK        -0.0687 
     10 C10       -79.2467   29.6983  -71.6584 C.ar      11 UNK        -0.0823 
     11 C11       -78.2917   30.1594  -72.5711 C.ar      11 UNK        -0.0830 
     12 C12       -76.9600   29.7554  -72.4240 C.ar      11 UNK        -0.1021 
     13 C13       -76.5926   28.8697  -71.4072 C.ar      11 UNK        -0.0753 
     14 C14       -77.5630   28.4005  -70.5184 C.ar      11 UNK        -0.0933 
     15 C15       -75.1530   28.3977  -71.2877 C.3       11 UNK         0.0166 
     16 S16       -74.0884   29.6381  -70.4989 S.3       11 UNK        -0.2615 
     17 C17       -72.4846   28.7633  -70.5241 C.3       11 UNK        -0.0865 
     18 CA        -71.5787   29.1848  -71.7134 C.3       10 UNK         0.0862 
     19 C         -70.1192   28.6697  -71.5246 C.2       10 UNK         0.5551 
     20 N         -69.5380   27.9175  -72.4523 N.am      10 UNK        -0.7319 
     21 O         -69.4935   28.9690  -70.5105 O.2       10 UNK        -0.5018 
     22 N         -72.1808   28.8327  -73.0107 N.am      10 UNK        -0.4509 
     23 C         -71.9141   29.4479  -74.1690 C.2       10 UNK         0.4899 
     24 O         -71.1887   30.4394  -74.2655 O.2       10 UNK        -0.4839 
     25 CA        -72.5644   28.8404  -75.4285 C.3       9 UNK         0.0222 
     26 CB        -71.9182   29.3382  -76.7378 C.3       9 UNK        -0.1966 
     27 N         -72.6196   27.3725  -75.4171 N.am      9 UNK        -0.4218 
     28 C         -71.5986   26.5121  -75.2906 C.2       9 UNK         0.5020 
     29 O         -70.4325   26.8501  -75.0829 O.2       9 UNK        -0.5274 
     30 CA        -71.9353   25.0162  -75.4207 C.3       8 UNK         0.0270 
     31 CB        -72.4190   24.4280  -74.0857 C.3       8 UNK        -0.1976 
     32 N         -72.9014   24.7375  -76.4931 N.am      8 UNK        -0.4313 
     33 C         -72.5743   24.7883  -77.7942 C.2       8 UNK         0.5041 
     34 O         -71.4578   25.1071  -78.2061 O.2       8 UNK        -0.5577 
     35 CA        -73.6504   24.4035  -78.8148 C.3       7 UNK         0.0284 
     36 CB        -73.9444   22.8928  -78.7730 C.3       7 UNK        -0.1958 
     37 N         -74.8845   25.1663  -78.6141 N.am      7 UNK        -0.4454 
     38 C         -75.2823   26.1597  -79.4218 C.2       7 UNK         0.5089 
     39 O         -74.6181   26.5816  -80.3698 O.2       7 UNK        -0.5125 
     40 CA        -76.6693   26.7713  -79.1695 C.3       6 UNK         0.0408 
     41 CB        -77.7655   25.8973  -79.7993 C.3       6 UNK        -0.1791 
     42 N         -76.9778   27.0013  -77.7587 N.am      6 UNK        -0.4762 
     43 C         -76.4425   27.9830  -77.0191 C.2       6 UNK         0.5007 
     44 O         -75.5464   28.7274  -77.4166 O.2       6 UNK        -0.5032 
     45 CA        -77.0106   28.1686  -75.5997 C.3       5 UNK         0.0783 
     46 C46       -78.3143   29.0122  -75.5925 C.3       11 UNK        -0.0857 
     47 S47       -77.9523   30.7800  -75.3169 S.3       11 UNK        -0.2512 
     48 C48       -78.7209   31.1094  -73.6894 C.3       11 UNK         0.0225 
     49 N         -77.1883   26.8802  -74.9329 N.am      5 UNK        -0.4615 
     50 C         -76.2015   26.2450  -74.2914 C.2       4 UNK         0.5053 
     51 O         -75.0558   26.6785  -74.2091 O.2       4 UNK        -0.5105 
     52 CA        -76.5285   24.8736  -73.6836 C.3       4 UNK         0.0263 
     53 CB        -77.1913   25.0379  -72.3073 C.3       4 UNK        -0.1981 
     54 N         -77.3703   24.0703  -74.5720 N.am      4 UNK        -0.4224 
     55 C         -76.9677   23.6558  -75.7840 C.2       3 UNK         0.4895 
     56 O         -75.8377   23.8641  -76.2299 O.2       3 UNK        -0.5091 
     57 CA        -77.9943   22.9358  -76.6759 C.3       3 UNK         0.0250 
     58 CB        -77.8529   21.4133  -76.5272 C.3       3 UNK        -0.1996 
     59 N         -79.3887   23.3229  -76.4351 N.am      3 UNK        -0.4254 
     60 C         -79.8795   24.5680  -76.5191 C.2       2 UNK         0.5004 
     61 O         -79.1971   25.5533  -76.8061 O.2       2 UNK        -0.5226 
     62 CA        -81.3667   24.7766  -76.1774 C.3       2 UNK         0.0269 
     63 CB        -82.1326   23.4801  -75.8248 C.3       2 UNK        -0.1926 
     64 N         -81.5290   25.7699  -75.1086 N.am      2 UNK        -0.4687 
     65 C         -80.9868   25.7299  -73.8802 C.2       1 UNK         0.5165 
     66 O         -80.2604   24.8149  -73.4890 O.2       1 UNK        -0.5079 
     67 H67       -83.4817   25.0344  -72.9233 H         1 UNK         0.0900 
     68 H68       -84.1901   25.8600  -71.5251 H         1 UNK         0.0900 
     69 H69       -85.1702   25.4967  -72.9392 H         1 UNK         0.0900 
     70 H70       -82.4282   28.5223  -73.6845 H         1 UNK         0.2959 
     71 H71       -80.5303   27.6332  -73.1360 H         1 UNK         0.1079 
     72 H72       -81.8483   25.7033  -71.1705 H         1 UNK         0.0837 
     73 H73       -80.1820   26.1751  -71.2161 H         1 UNK         0.0837 
     74 H74       -80.0436   29.0893  -68.8538 H         1 UNK         0.0685 
     75 H75       -79.5509   27.4317  -69.0961 H         1 UNK         0.0685 
     76 H76       -80.2721   30.0307  -71.7450 H         1 UNK         0.1434 
     77 H77       -76.2052   30.1232  -73.1049 H         1 UNK         0.1329 
     78 H78       -77.2772   27.7196  -69.7282 H         1 UNK         0.1335 
     79 H79       -74.7619   28.1936  -72.2806 H         1 UNK         0.0680 
     80 H80       -75.1008   27.4610  -70.7308 H         1 UNK         0.0680 
     81 H81       -72.6428   27.6834  -70.5231 H         1 UNK         0.1032 
     82 H82       -71.9943   28.9892  -69.5750 H         1 UNK         0.1032 
     83 H83       -71.4990   30.2732  -71.6775 H         1 UNK         0.0461 
     84 H84       -70.0123   27.6762  -73.3159 H         1 UNK         0.3453 
     85 H85       -68.5923   27.6044  -72.3029 H         1 UNK         0.3453 
     86 H86       -72.7735   28.0161  -73.0279 H         1 UNK         0.2984 
     87 H87       -73.6007   29.1806  -75.4225 H         1 UNK         0.0554 
     88 H88       -71.9754   30.4244  -76.8170 H         1 UNK         0.0847 
     89 H89       -72.4270   28.9252  -77.6092 H         1 UNK         0.0847 
     90 H90       -70.8656   29.0598  -76.7994 H         1 UNK         0.0847 
     91 H91       -73.5563   26.9798  -75.4261 H         1 UNK         0.3141 
     92 H92       -71.0053   24.5019  -75.6741 H         1 UNK         0.0743 
     93 H93       -73.3202   24.9149  -73.7218 H         1 UNK         0.0784 
     94 H94       -72.6253   23.3612  -74.1728 H         1 UNK         0.0784 
     95 H95       -71.6573   24.5481  -73.3141 H         1 UNK         0.0784 
     96 H96       -73.8411   24.4564  -76.2309 H         1 UNK         0.3213 
     97 H97       -73.2392   24.6119  -79.8051 H         1 UNK         0.0855 
     98 H98       -74.2987   22.5613  -77.7978 H         1 UNK         0.0814 
     99 H99       -73.0441   22.3194  -78.9979 H         1 UNK         0.0814 
    100 H100      -74.6959   22.6162  -79.5125 H         1 UNK         0.0814 
    101 H101      -75.4622   24.8929  -77.8249 H         1 UNK         0.3105 
    102 H102      -76.6947   27.7396  -79.6743 H         1 UNK         0.0547 
    103 H103      -78.7475   26.3604  -79.7004 H         1 UNK         0.0837 
    104 H104      -77.8142   24.9118  -79.3373 H         1 UNK         0.0837 
    105 H105      -77.5830   25.7491  -80.8645 H         1 UNK         0.0837 
    106 H106      -77.7343   26.4451  -77.3615 H         1 UNK         0.3020 
    107 H107      -76.2479   28.7165  -75.0421 H         1 UNK         0.1245 
    108 H108      -78.9869   28.6730  -74.8042 H         1 UNK         0.0781 
    109 H109      -78.8829   28.9009  -76.5182 H         1 UNK         0.0781 
    110 H110      -79.8040   31.0788  -73.8181 H         1 UNK         0.0836 
    111 H111      -78.4778   32.1295  -73.3900 H         1 UNK         0.0836 
    112 H112      -78.0761   26.4139  -75.0613 H         1 UNK         0.3022 
    113 H113      -75.5922   24.3311  -73.5428 H         1 UNK         0.0747 
    114 H114      -77.5016   24.0786  -71.8931 H         1 UNK         0.0793 
    115 H115      -76.4967   25.4886  -71.5978 H         1 UNK         0.0793 
    116 H116      -78.0660   25.6862  -72.3517 H         1 UNK         0.0793 
    117 H117      -78.3274   23.9090  -74.2818 H         1 UNK         0.3047 
    118 H118      -77.7580   23.1964  -77.7086 H         1 UNK         0.0822 
    119 H119      -78.4959   20.8834  -77.2302 H         1 UNK         0.0807 
    120 H120      -78.1073   21.0801  -75.5202 H         1 UNK         0.0807 
    121 H121      -76.8283   21.0954  -76.7268 H         1 UNK         0.0807 
    122 H122      -80.0205   22.5832  -76.1646 H         1 UNK         0.2946 
    123 H123      -81.8219   25.1995  -77.0746 H         1 UNK         0.1144 
    124 H124      -81.7329   22.9900  -74.9361 H         1 UNK         0.0793 
    125 H125      -82.1013   22.7638  -76.6470 H         1 UNK         0.0793 
    126 H126      -83.1847   23.6919  -75.6332 H         1 UNK         0.0793 
    127 H127      -82.0893   26.5776  -75.3439 H         1 UNK         0.2896 
@<TRIPOS>BOND
     1    1    2 1    
     2    1   67 1    
     3    1   68 1    
     4    1   69 1    
     5    2    3 2    
     6    2    4 am   BACKBONE|DICT|INTERRES
     7    4    5 1    
     8    4   70 1    
     9    5    6 1    
    10    5   65 1    
    11    5   71 1    
    12    6    7 1    
    13    6   72 1    
    14    6   73 1    
    15    7    8 1    
    16    8    9 1    
    17    8   74 1    
    18    8   75 1    
    19    9   10 ar   
    20    9   14 ar   
    21   10   11 ar   
    22   10   76 1    
    23   11   12 ar   
    24   11   48 1    
    25   12   13 ar   
    26   12   77 1    
    27   13   14 ar   
    28   13   15 1    
    29   14   78 1    
    30   15   16 1    
    31   15   79 1    
    32   15   80 1    
    33   16   17 1    
    34   17   18 1    
    35   17   81 1    
    36   17   82 1    
    37   18   19 1    
    38   18   22 1    
    39   18   83 1    
    40   19   20 am   BACKBONE|DICT|INTERRES
    41   19   21 2    
    42   20   84 1    
    43   20   85 1    
    44   22   23 am   BACKBONE|DICT|INTERRES
    45   22   86 1    
    46   23   24 2    
    47   23   25 1    
    48   25   26 1    
    49   25   27 1    
    50   25   87 1    
    51   26   88 1    
    52   26   89 1    
    53   26   90 1    
    54   27   28 am   BACKBONE|DICT|INTERRES
    55   27   91 1    
    56   28   29 2    
    57   28   30 1    
    58   30   31 1    
    59   30   32 1    
    60   30   92 1    
    61   31   93 1    
    62   31   94 1    
    63   31   95 1    
    64   32   33 am   BACKBONE|DICT|INTERRES
    65   32   96 1    
    66   33   34 2    
    67   33   35 1    
    68   35   36 1    
    69   35   37 1    
    70   35   97 1    
    71   36   98 1    
    72   36   99 1    
    73   36  100 1    
    74   37   38 am   BACKBONE|DICT|INTERRES
    75   37  101 1    
    76   38   39 2    
    77   38   40 1    
    78   40   41 1    
    79   40   42 1    
    80   40  102 1    
    81   41  103 1    
    82   41  104 1    
    83   41  105 1    
    84   42   43 am   BACKBONE|DICT|INTERRES
    85   42  106 1    
    86   43   44 2    
    87   43   45 1    
    88   45   46 1    
    89   45   49 1    
    90   45  107 1    
    91   46   47 1    
    92   46  108 1    
    93   46  109 1    
    94   47   48 1    
    95   48  110 1    
    96   48  111 1    
    97   49   50 am   BACKBONE|DICT|INTERRES
    98   49  112 1    
    99   50   51 2    
   100   50   52 1    
   101   52   53 1    
   102   52   54 1    
   103   52  113 1    
   104   53  114 1    
   105   53  115 1    
   106   53  116 1    
   107   54   55 am   BACKBONE|DICT|INTERRES
   108   54  117 1    
   109   55   56 2    
   110   55   57 1    
   111   57   58 1    
   112   57   59 1    
   113   57  118 1    
   114   58  119 1    
   115   58  120 1    
   116   58  121 1    
   117   59   60 am   BACKBONE|DICT|INTERRES
   118   59  122 1    
   119   60   61 2    
   120   60   62 1    
   121   62   63 1    
   122   62   64 1    
   123   62  123 1    
   124   63  124 1    
   125   63  125 1    
   126   63  126 1    
   127   64   65 am   BACKBONE|DICT|INTERRES
   128   64  127 1    
   129   65   66 2    
@<TRIPOS>SUBSTRUCTURE
     1 UNK         1 GROUP             0       ****    0 ROOT    
