@<TRIPOS>MOLECULE
3R135
127   129    1
SMALL
USER_CHARGES


@<TRIPOS>ATOM
      1 CA        -78.2436   27.9029  -77.3956 C.3       0 UNK        -0.1998 
      2 C         -79.0052   27.4259  -76.1685 C.2       0 UNK         0.4909 
      3 O         -78.9449   26.2420  -75.8368 O.2       0 UNK        -0.5240 
      4 N         -79.7194   28.3373  -75.4919 N.am      1 UNK        -0.4739 
      5 CA        -80.4451   28.0803  -74.2436 C.3       1 UNK         0.0864 
      6 C6        -81.0209   29.3834  -73.6292 C.3       11 UNK        -0.0881 
      7 S7        -81.2929   29.2344  -71.8284 S.3       11 UNK        -0.2682 
      8 C8        -79.7581   29.9506  -71.1500 C.3       11 UNK         0.0289 
      9 C9        -78.5302   29.1916  -71.6298 C.ar      11 UNK        -0.0687 
     10 C10       -78.2429   27.9227  -71.1190 C.ar      11 UNK        -0.0823 
     11 C11       -77.1665   27.1838  -71.6189 C.ar      11 UNK        -0.0830 
     12 C12       -76.3604   27.7337  -72.6218 C.ar      11 UNK        -0.1021 
     13 C13       -76.6237   29.0128  -73.1209 C.ar      11 UNK        -0.0753 
     14 C14       -77.7087   29.7367  -72.6205 C.ar      11 UNK        -0.0933 
     15 C15       -75.7551   29.6133  -74.2158 C.3       11 UNK         0.0166 
     16 S16       -74.5912   30.8422  -73.5453 S.3       11 UNK        -0.2615 
     17 C17       -73.3450   29.7697  -72.7486 C.3       11 UNK        -0.0865 
     18 CA        -71.9035   30.3368  -72.8581 C.3       10 UNK         0.0862 
     19 C         -70.8997   29.4566  -72.0595 C.2       10 UNK         0.5551 
     20 N         -69.9008   28.8478  -72.6877 N.am      10 UNK        -0.7319 
     21 O         -71.0264   29.3313  -70.8440 O.2       10 UNK        -0.5018 
     22 N         -71.5193   30.5674  -74.2594 N.am      10 UNK        -0.4509 
     23 C         -70.6405   31.4851  -74.6861 C.2       10 UNK         0.4899 
     24 O         -70.0169   32.2343  -73.9336 O.2       10 UNK        -0.4839 
     25 CA        -70.4115   31.6007  -76.2091 C.3       9 UNK         0.0222 
     26 CB        -69.0927   30.9173  -76.6060 C.3       9 UNK        -0.1966 
     27 N         -71.5028   31.0291  -77.0027 N.am      9 UNK        -0.4218 
     28 C         -72.7425   31.5318  -77.0793 C.2       9 UNK         0.5020 
     29 O         -73.0442   32.6519  -76.6645 O.2       9 UNK        -0.5274 
     30 CA        -73.8459   30.6437  -77.6975 C.3       8 UNK         0.0270 
     31 CB        -74.3539   31.2551  -79.0148 C.3       8 UNK        -0.1976 
     32 N         -73.5143   29.2281  -77.9328 N.am      8 UNK        -0.4313 
     33 C         -73.0783   28.3403  -77.0281 C.2       8 UNK         0.5041 
     34 O         -72.7474   28.6375  -75.8793 O.2       8 UNK        -0.5577 
     35 CA        -72.9329   26.8864  -77.5118 C.3       7 UNK         0.0284 
     36 CB        -71.6604   26.7300  -78.3620 C.3       7 UNK        -0.1958 
     37 N         -72.8750   25.9337  -76.3990 N.am      7 UNK        -0.4454 
     38 C         -73.8675   25.7083  -75.5287 C.2       7 UNK         0.5089 
     39 O         -74.9829   26.2298  -75.6043 O.2       7 UNK        -0.5125 
     40 CA        -73.5332   24.7570  -74.3620 C.3       6 UNK         0.0408 
     41 CB        -72.7285   25.4982  -73.2794 C.3       6 UNK        -0.1791 
     42 N         -74.7335   24.1822  -73.7486 N.am      6 UNK        -0.4762 
     43 C         -75.5890   23.3589  -74.3685 C.2       6 UNK         0.5007 
     44 O         -75.3793   22.8674  -75.4825 O.2       6 UNK        -0.5032 
     45 CA        -76.8992   23.0515  -73.6201 C.3       5 UNK         0.0783 
     46 C46       -77.7392   24.3405  -73.3542 C.3       11 UNK        -0.0857 
     47 S47       -78.1214   24.5693  -71.5877 S.3       11 UNK        -0.2512 
     48 C48       -76.8783   25.7961  -71.0645 C.3       11 UNK         0.0225 
     49 N         -77.6446   22.0751  -74.4074 N.am      5 UNK        -0.4615 
     50 C         -78.5759   21.2336  -73.9551 C.2       4 UNK         0.5053 
     51 O         -78.8615   21.1015  -72.7645 O.2       4 UNK        -0.5105 
     52 CA        -79.3647   20.4711  -75.0374 C.3       4 UNK         0.0263 
     53 CB        -80.2824   19.3825  -74.4517 C.3       4 UNK        -0.1981 
     54 N         -80.1805   21.4302  -75.7819 N.am      4 UNK        -0.4224 
     55 C         -79.7399   22.2281  -76.7624 C.2       3 UNK         0.4895 
     56 O         -78.6572   22.0746  -77.3285 O.2       3 UNK        -0.5091 
     57 CA        -80.6010   23.4555  -77.1040 C.3       3 UNK         0.0250 
     58 CB        -81.7472   23.1057  -78.0733 C.3       3 UNK        -0.1996 
     59 N         -81.0668   24.1766  -75.9072 N.am      3 UNK        -0.4254 
     60 C         -81.9940   23.8058  -75.0083 C.2       2 UNK         0.5004 
     61 O         -82.6446   22.7641  -75.1030 O.2       2 UNK        -0.5226 
     62 CA        -82.1982   24.6850  -73.7577 C.3       2 UNK         0.0269 
     63 CB        -81.9607   23.8619  -72.4788 C.3       2 UNK        -0.1926 
     64 N         -81.3360   25.8670  -73.7078 N.am      2 UNK        -0.4687 
     65 C         -81.5218   26.9898  -74.4130 C.2       1 UNK         0.5165 
     66 O         -82.4664   27.1715  -75.1841 O.2       1 UNK        -0.5079 
     67 H67       -78.3778   28.9699  -77.5717 H         1 UNK         0.0900 
     68 H68       -78.5827   27.3647  -78.2803 H         1 UNK         0.0900 
     69 H69       -77.1782   27.7110  -77.2663 H         1 UNK         0.0900 
     70 H70       -79.7645   29.2845  -75.8383 H         1 UNK         0.2959 
     71 H71       -79.6896   27.6886  -73.5609 H         1 UNK         0.1079 
     72 H72       -80.3430   30.2203  -73.8020 H         1 UNK         0.0837 
     73 H73       -81.9591   29.6675  -74.1100 H         1 UNK         0.0837 
     74 H74       -79.6977   31.0044  -71.4267 H         1 UNK         0.0685 
     75 H75       -79.8022   29.9210  -70.0604 H         1 UNK         0.0685 
     76 H76       -78.8788   27.4958  -70.3551 H         1 UNK         0.1434 
     77 H77       -75.5316   27.1677  -73.0225 H         1 UNK         0.1329 
     78 H78       -77.9221   30.7192  -73.0188 H         1 UNK         0.1335 
     79 H79       -75.2104   28.8359  -74.7524 H         1 UNK         0.0680 
     80 H80       -76.3923   30.0995  -74.9557 H         1 UNK         0.0680 
     81 H81       -73.3853   28.7761  -73.1978 H         1 UNK         0.1032 
     82 H82       -73.6348   29.6438  -71.7036 H         1 UNK         0.1032 
     83 H83       -71.9051   31.3066  -72.3568 H         1 UNK         0.0461 
     84 H84       -69.2520   28.2848  -72.1610 H         1 UNK         0.3453 
     85 H85       -69.7954   28.9484  -73.6840 H         1 UNK         0.3453 
     86 H86       -71.9784   29.9585  -74.9365 H         1 UNK         0.2984 
     87 H87       -70.3342   32.6627  -76.4511 H         1 UNK         0.0554 
     88 H88       -68.8776   31.0537  -77.6660 H         1 UNK         0.0847 
     89 H89       -68.2528   31.3378  -76.0509 H         1 UNK         0.0847 
     90 H90       -69.1140   29.8460  -76.4018 H         1 UNK         0.0847 
     91 H91       -71.3639   30.0931  -77.3538 H         1 UNK         0.3141 
     92 H92       -74.6713   30.6529  -76.9829 H         1 UNK         0.0743 
     93 H93       -75.2248   30.7197  -79.3935 H         1 UNK         0.0784 
     94 H94       -74.6549   32.2947  -78.8764 H         1 UNK         0.0784 
     95 H95       -73.5846   31.2396  -79.7879 H         1 UNK         0.0784 
     96 H96       -73.7149   28.8871  -78.8624 H         1 UNK         0.3213 
     97 H97       -73.8048   26.6381  -78.1211 H         1 UNK         0.0855 
     98 H98       -71.6798   27.3886  -79.2312 H         1 UNK         0.0814 
     99 H99       -71.5563   25.7115  -78.7368 H         1 UNK         0.0814 
    100 H100      -70.7621   26.9708  -77.7915 H         1 UNK         0.0814 
    101 H101      -71.9837   25.4890  -76.2366 H         1 UNK         0.3105 
    102 H102      -72.9260   23.9368  -74.7507 H         1 UNK         0.0547 
    103 H103      -73.3002   26.3117  -72.8332 H         1 UNK         0.0837 
    104 H104      -72.4242   24.8239  -72.4788 H         1 UNK         0.0837 
    105 H105      -71.8184   25.9357  -73.6927 H         1 UNK         0.0837 
    106 H106      -74.9836   24.5401  -72.8403 H         1 UNK         0.3020 
    107 H107      -76.6131   22.5756  -72.6791 H         1 UNK         0.1245 
    108 H108      -78.6928   24.2944  -73.8825 H         1 UNK         0.0781 
    109 H109      -77.2670   25.2459  -73.7411 H         1 UNK         0.0781 
    110 H110      -75.8816   25.4587  -71.3485 H         1 UNK         0.0836 
    111 H111      -76.8774   25.8452  -69.9745 H         1 UNK         0.0836 
    112 H112      -77.4378   22.1006  -75.4010 H         1 UNK         0.3022 
    113 H113      -78.6495   19.9916  -75.7092 H         1 UNK         0.0747 
    114 H114      -80.8038   18.8394  -75.2400 H         1 UNK         0.0793 
    115 H115      -79.7065   18.6528  -73.8810 H         1 UNK         0.0793 
    116 H116      -81.0342   19.8029  -73.7821 H         1 UNK         0.0793 
    117 H117      -81.0865   21.6623  -75.3833 H         1 UNK         0.3047 
    118 H118      -79.9454   24.1589  -77.6206 H         1 UNK         0.0822 
    119 H119      -82.3370   23.9875  -78.3235 H         1 UNK         0.0807 
    120 H120      -82.4226   22.3548  -77.6629 H         1 UNK         0.0807 
    121 H121      -81.3520   22.7039  -79.0071 H         1 UNK         0.0807 
    122 H122      -80.5317   25.0168  -75.7043 H         1 UNK         0.2946 
    123 H123      -83.2397   25.0148  -73.7674 H         1 UNK         0.1144 
    124 H124      -82.1212   24.4616  -71.5826 H         1 UNK         0.0793 
    125 H125      -80.9463   23.4620  -72.4388 H         1 UNK         0.0793 
    126 H126      -82.6449   23.0141  -72.4233 H         1 UNK         0.0793 
    127 H127      -80.5213   25.7975  -73.1138 H         1 UNK         0.2896 
@<TRIPOS>BOND
     1    1    2 1    
     2    1   67 1    
     3    1   68 1    
     4    1   69 1    
     5    2    3 2    
     6    2    4 am   BACKBONE|DICT|INTERRES
     7    4    5 1    
     8    4   70 1    
     9    5    6 1    
    10    5   65 1    
    11    5   71 1    
    12    6    7 1    
    13    6   72 1    
    14    6   73 1    
    15    7    8 1    
    16    8    9 1    
    17    8   74 1    
    18    8   75 1    
    19    9   10 ar   
    20    9   14 ar   
    21   10   11 ar   
    22   10   76 1    
    23   11   12 ar   
    24   11   48 1    
    25   12   13 ar   
    26   12   77 1    
    27   13   14 ar   
    28   13   15 1    
    29   14   78 1    
    30   15   16 1    
    31   15   79 1    
    32   15   80 1    
    33   16   17 1    
    34   17   18 1    
    35   17   81 1    
    36   17   82 1    
    37   18   19 1    
    38   18   22 1    
    39   18   83 1    
    40   19   20 am   BACKBONE|DICT|INTERRES
    41   19   21 2    
    42   20   84 1    
    43   20   85 1    
    44   22   23 am   BACKBONE|DICT|INTERRES
    45   22   86 1    
    46   23   24 2    
    47   23   25 1    
    48   25   26 1    
    49   25   27 1    
    50   25   87 1    
    51   26   88 1    
    52   26   89 1    
    53   26   90 1    
    54   27   28 am   BACKBONE|DICT|INTERRES
    55   27   91 1    
    56   28   29 2    
    57   28   30 1    
    58   30   31 1    
    59   30   32 1    
    60   30   92 1    
    61   31   93 1    
    62   31   94 1    
    63   31   95 1    
    64   32   33 am   BACKBONE|DICT|INTERRES
    65   32   96 1    
    66   33   34 2    
    67   33   35 1    
    68   35   36 1    
    69   35   37 1    
    70   35   97 1    
    71   36   98 1    
    72   36   99 1    
    73   36  100 1    
    74   37   38 am   BACKBONE|DICT|INTERRES
    75   37  101 1    
    76   38   39 2    
    77   38   40 1    
    78   40   41 1    
    79   40   42 1    
    80   40  102 1    
    81   41  103 1    
    82   41  104 1    
    83   41  105 1    
    84   42   43 am   BACKBONE|DICT|INTERRES
    85   42  106 1    
    86   43   44 2    
    87   43   45 1    
    88   45   46 1    
    89   45   49 1    
    90   45  107 1    
    91   46   47 1    
    92   46  108 1    
    93   46  109 1    
    94   47   48 1    
    95   48  110 1    
    96   48  111 1    
    97   49   50 am   BACKBONE|DICT|INTERRES
    98   49  112 1    
    99   50   51 2    
   100   50   52 1    
   101   52   53 1    
   102   52   54 1    
   103   52  113 1    
   104   53  114 1    
   105   53  115 1    
   106   53  116 1    
   107   54   55 am   BACKBONE|DICT|INTERRES
   108   54  117 1    
   109   55   56 2    
   110   55   57 1    
   111   57   58 1    
   112   57   59 1    
   113   57  118 1    
   114   58  119 1    
   115   58  120 1    
   116   58  121 1    
   117   59   60 am   BACKBONE|DICT|INTERRES
   118   59  122 1    
   119   60   61 2    
   120   60   62 1    
   121   62   63 1    
   122   62   64 1    
   123   62  123 1    
   124   63  124 1    
   125   63  125 1    
   126   63  126 1    
   127   64   65 am   BACKBONE|DICT|INTERRES
   128   64  127 1    
   129   65   66 2    
@<TRIPOS>SUBSTRUCTURE
     1 UNK         1 GROUP             0       ****    0 ROOT    
