@<TRIPOS>MOLECULE
3R135
127   129    1
SMALL
USER_CHARGES


@<TRIPOS>ATOM
      1 CA        -83.8508   24.4054  -69.9491 C.3       0 UNK        -0.1998 
      2 C         -83.7176   25.1654  -71.2603 C.2       0 UNK         0.4909 
      3 O         -84.7207   25.4069  -71.9328 O.2       0 UNK        -0.5240 
      4 N         -82.4883   25.5508  -71.6258 N.am      1 UNK        -0.4739 
      5 CA        -82.1666   26.2243  -72.8857 C.3       1 UNK         0.0864 
      6 C6        -80.7886   26.9257  -72.8049 C.3       11 UNK        -0.0881 
      7 S7        -80.4956   28.1143  -74.1632 S.3       11 UNK        -0.2682 
      8 C8        -79.8815   29.5836  -73.2681 C.3       11 UNK         0.0289 
      9 C9        -78.4114   29.4435  -72.8922 C.ar      11 UNK        -0.0687 
     10 C10       -78.0401   28.7083  -71.7642 C.ar      11 UNK        -0.0823 
     11 C11       -76.6927   28.5023  -71.4578 C.ar      11 UNK        -0.0830 
     12 C12       -75.7085   29.0912  -72.2555 C.ar      11 UNK        -0.1021 
     13 C13       -76.0648   29.8739  -73.3585 C.ar      11 UNK        -0.0753 
     14 C14       -77.4178   30.0369  -73.6776 C.ar      11 UNK        -0.0933 
     15 C15       -74.9937   30.4896  -74.2477 C.3       11 UNK         0.0166 
     16 S16       -74.3588   32.0643  -73.5921 S.3       11 UNK        -0.2615 
     17 C17       -72.9273   31.5178  -72.5969 C.3       11 UNK        -0.0865 
     18 CA        -71.5898   31.6072  -73.3781 C.3       10 UNK         0.0862 
     19 C         -70.3880   31.3128  -72.4422 C.2       10 UNK         0.5551 
     20 N         -69.6524   32.3358  -72.0300 N.am      10 UNK        -0.7319 
     21 O         -70.1522   30.1719  -72.0503 O.2       10 UNK        -0.5018 
     22 N         -71.5921   30.7145  -74.5443 N.am      10 UNK        -0.4509 
     23 C         -70.7396   30.7768  -75.5732 C.2       10 UNK         0.4899 
     24 O         -69.8651   31.6372  -75.6892 O.2       10 UNK        -0.4839 
     25 CA        -70.9229   29.6997  -76.6622 C.3       9 UNK         0.0222 
     26 CB        -69.7500   29.6429  -77.6644 C.3       9 UNK        -0.1966 
     27 N         -71.2127   28.3686  -76.1107 N.am      9 UNK        -0.4218 
     28 C         -70.4199   27.6322  -75.3115 C.2       9 UNK         0.5020 
     29 O         -69.2960   27.9820  -74.9490 O.2       9 UNK        -0.5274 
     30 CA        -70.9611   26.2763  -74.8140 C.3       8 UNK         0.0270 
     31 CB        -71.3704   26.3825  -73.3351 C.3       8 UNK        -0.1976 
     32 N         -72.0946   25.7702  -75.5939 N.am      8 UNK        -0.4313 
     33 C         -72.0061   25.3070  -76.8516 C.2       8 UNK         0.5041 
     34 O         -70.9362   25.1592  -77.4436 O.2       8 UNK        -0.5577 
     35 CA        -73.3165   24.9770  -77.5976 C.3       7 UNK         0.0284 
     36 CB        -73.5365   23.4567  -77.6491 C.3       7 UNK        -0.1958 
     37 N         -74.5131   25.6108  -77.0367 N.am      7 UNK        -0.4454 
     38 C         -74.7089   26.9298  -76.8949 C.2       7 UNK         0.5089 
     39 O         -73.9155   27.7867  -77.2866 O.2       7 UNK        -0.5125 
     40 CA        -75.9559   27.3679  -76.1064 C.3       6 UNK         0.0408 
     41 CB        -77.0802   27.7917  -77.0601 C.3       6 UNK        -0.1791 
     42 N         -76.4514   26.3756  -75.1422 N.am      6 UNK        -0.4762 
     43 C         -75.7338   25.8586  -74.1291 C.2       6 UNK         0.5007 
     44 O         -74.5517   26.1429  -73.9332 O.2       6 UNK        -0.5032 
     45 CA        -76.4134   24.7877  -73.2434 C.3       5 UNK         0.0783 
     46 C46       -76.9541   25.3425  -71.9015 C.3       11 UNK        -0.0857 
     47 S47       -75.6515   25.9956  -70.7940 S.3       11 UNK        -0.2512 
     48 C48       -76.3098   27.6189  -70.2780 C.3       11 UNK         0.0225 
     49 N         -77.4640   24.0720  -73.9773 N.am      5 UNK        -0.4615 
     50 C         -77.2264   23.1562  -74.9257 C.2       4 UNK         0.5053 
     51 O         -76.1000   22.7861  -75.2548 O.2       4 UNK        -0.5105 
     52 CA        -78.4556   22.5950  -75.6521 C.3       4 UNK         0.0263 
     53 CB        -79.2716   21.6685  -74.7353 C.3       4 UNK        -0.1981 
     54 N         -79.3115   23.6652  -76.1701 N.am      4 UNK        -0.4224 
     55 C         -79.0191   24.4061  -77.2515 C.2       3 UNK         0.4895 
     56 O         -77.9713   24.2792  -77.8862 O.2       3 UNK        -0.5091 
     57 CA        -80.0307   25.4859  -77.6995 C.3       3 UNK         0.0250 
     58 CB        -80.1804   25.5437  -79.2342 C.3       3 UNK        -0.1996 
     59 N         -81.3397   25.4110  -77.0430 N.am      3 UNK        -0.4254 
     60 C         -82.2453   24.4224  -77.1030 C.2       2 UNK         0.5004 
     61 O         -82.1431   23.4381  -77.8363 O.2       2 UNK        -0.5226 
     62 CA        -83.4483   24.5447  -76.1425 C.3       2 UNK         0.0269 
     63 CB        -83.9881   23.1649  -75.7082 C.3       2 UNK        -0.1926 
     64 N         -83.1860   25.3826  -74.9581 N.am      2 UNK        -0.4687 
     65 C         -82.2248   25.2031  -74.0374 C.2       1 UNK         0.5165 
     66 O         -81.3859   24.2991  -74.0830 O.2       1 UNK        -0.5079 
     67 H67       -82.8887   24.2728  -69.4546 H         1 UNK         0.0900 
     68 H68       -84.5102   24.9437  -69.2688 H         1 UNK         0.0900 
     69 H69       -84.2782   23.4194  -70.1293 H         1 UNK         0.0900 
     70 H70       -81.6990   25.2951  -71.0497 H         1 UNK         0.2959 
     71 H71       -82.9238   26.9939  -73.0542 H         1 UNK         0.1079 
     72 H72       -80.7387   27.4656  -71.8598 H         1 UNK         0.0837 
     73 H73       -79.9732   26.2017  -72.7819 H         1 UNK         0.0837 
     74 H74       -80.0191   30.4581  -73.9059 H         1 UNK         0.0685 
     75 H75       -80.4864   29.7638  -72.3783 H         1 UNK         0.0685 
     76 H76       -78.7986   28.2599  -71.1401 H         1 UNK         0.1434 
     77 H77       -74.6676   28.9146  -72.0266 H         1 UNK         0.1329 
     78 H78       -77.6975   30.6131  -74.5489 H         1 UNK         0.1335 
     79 H79       -74.1799   29.7785  -74.3892 H         1 UNK         0.0680 
     80 H80       -75.4002   30.6775  -75.2428 H         1 UNK         0.0680 
     81 H81       -72.8883   32.1594  -71.7142 H         1 UNK         0.1032 
     82 H82       -73.0887   30.5080  -72.2198 H         1 UNK         0.1032 
     83 H83       -71.4907   32.6294  -73.7502 H         1 UNK         0.0461 
     84 H84       -69.8451   33.2751  -72.3418 H         1 UNK         0.3453 
     85 H85       -68.8784   32.1639  -71.4073 H         1 UNK         0.3453 
     86 H86       -72.2465   29.9496  -74.5156 H         1 UNK         0.2984 
     87 H87       -71.8135   29.9889  -77.2223 H         1 UNK         0.0554 
     88 H88       -69.9182   28.8846  -78.4291 H         1 UNK         0.0847 
     89 H89       -68.8040   29.4180  -77.1710 H         1 UNK         0.0847 
     90 H90       -69.6281   30.5977  -78.1774 H         1 UNK         0.0847 
     91 H91       -72.1154   27.9850  -76.3756 H         1 UNK         0.3141 
     92 H92       -70.1479   25.5516  -74.8909 H         1 UNK         0.0743 
     93 H93       -72.1566   27.1237  -73.1856 H         1 UNK         0.0784 
     94 H94       -71.7321   25.4285  -72.9508 H         1 UNK         0.0784 
     95 H95       -70.5233   26.6820  -72.7163 H         1 UNK         0.0784 
     96 H96       -73.0100   25.8486  -75.1579 H         1 UNK         0.3213 
     97 H97       -73.2042   25.3436  -78.6200 H         1 UNK         0.0855 
     98 H98       -73.6637   23.0347  -76.6512 H         1 UNK         0.0814 
     99 H99       -72.6853   22.9535  -78.1100 H         1 UNK         0.0814 
    100 H100      -74.4196   23.2012  -78.2356 H         1 UNK         0.0814 
    101 H101      -75.2219   24.9893  -76.6707 H         1 UNK         0.3105 
    102 H102      -75.6666   28.2410  -75.5289 H         1 UNK         0.0547 
    103 H103      -76.7615   28.6300  -77.6810 H         1 UNK         0.0837 
    104 H104      -77.3585   26.9831  -77.7353 H         1 UNK         0.0837 
    105 H105      -77.9679   28.1150  -76.5157 H         1 UNK         0.0837 
    106 H106      -77.4077   26.0741  -75.2484 H         1 UNK         0.3020 
    107 H107      -75.6340   24.0611  -72.9996 H         1 UNK         0.1245 
    108 H108      -77.4586   24.5439  -71.3553 H         1 UNK         0.0781 
    109 H109      -77.7181   26.0931  -72.0881 H         1 UNK         0.0781 
    110 H110      -75.5574   28.1291  -69.6749 H         1 UNK         0.0836 
    111 H111      -77.1662   27.4589  -69.6210 H         1 UNK         0.0836 
    112 H112      -78.4214   24.3090  -73.7614 H         1 UNK         0.3022 
    113 H113      -78.1012   21.9999  -76.4969 H         1 UNK         0.0747 
    114 H114      -80.1143   21.2286  -75.2692 H         1 UNK         0.0793 
    115 H115      -78.6570   20.8464  -74.3661 H         1 UNK         0.0793 
    116 H116      -79.6680   22.1949  -73.8664 H         1 UNK         0.0793 
    117 H117      -80.1730   23.8447  -75.6638 H         1 UNK         0.3047 
    118 H118      -79.6117   26.4385  -77.3779 H         1 UNK         0.0822 
    119 H119      -80.8794   26.3236  -79.5363 H         1 UNK         0.0807 
    120 H120      -80.5354   24.5973  -79.6431 H         1 UNK         0.0807 
    121 H121      -79.2258   25.7646  -79.7136 H         1 UNK         0.0807 
    122 H122      -81.5384   26.1651  -76.3997 H         1 UNK         0.2946 
    123 H123      -84.2341   25.0449  -76.7113 H         1 UNK         0.1144 
    124 H124      -84.8409   23.2662  -75.0368 H         1 UNK         0.0793 
    125 H125      -83.2266   22.5758  -75.1958 H         1 UNK         0.0793 
    126 H126      -84.3235   22.5845  -76.5687 H         1 UNK         0.0793 
    127 H127      -83.8247   26.1563  -74.8291 H         1 UNK         0.2896 
@<TRIPOS>BOND
     1    1    2 1    
     2    1   67 1    
     3    1   68 1    
     4    1   69 1    
     5    2    3 2    
     6    2    4 am   BACKBONE|DICT|INTERRES
     7    4    5 1    
     8    4   70 1    
     9    5    6 1    
    10    5   65 1    
    11    5   71 1    
    12    6    7 1    
    13    6   72 1    
    14    6   73 1    
    15    7    8 1    
    16    8    9 1    
    17    8   74 1    
    18    8   75 1    
    19    9   10 ar   
    20    9   14 ar   
    21   10   11 ar   
    22   10   76 1    
    23   11   12 ar   
    24   11   48 1    
    25   12   13 ar   
    26   12   77 1    
    27   13   14 ar   
    28   13   15 1    
    29   14   78 1    
    30   15   16 1    
    31   15   79 1    
    32   15   80 1    
    33   16   17 1    
    34   17   18 1    
    35   17   81 1    
    36   17   82 1    
    37   18   19 1    
    38   18   22 1    
    39   18   83 1    
    40   19   20 am   BACKBONE|DICT|INTERRES
    41   19   21 2    
    42   20   84 1    
    43   20   85 1    
    44   22   23 am   BACKBONE|DICT|INTERRES
    45   22   86 1    
    46   23   24 2    
    47   23   25 1    
    48   25   26 1    
    49   25   27 1    
    50   25   87 1    
    51   26   88 1    
    52   26   89 1    
    53   26   90 1    
    54   27   28 am   BACKBONE|DICT|INTERRES
    55   27   91 1    
    56   28   29 2    
    57   28   30 1    
    58   30   31 1    
    59   30   32 1    
    60   30   92 1    
    61   31   93 1    
    62   31   94 1    
    63   31   95 1    
    64   32   33 am   BACKBONE|DICT|INTERRES
    65   32   96 1    
    66   33   34 2    
    67   33   35 1    
    68   35   36 1    
    69   35   37 1    
    70   35   97 1    
    71   36   98 1    
    72   36   99 1    
    73   36  100 1    
    74   37   38 am   BACKBONE|DICT|INTERRES
    75   37  101 1    
    76   38   39 2    
    77   38   40 1    
    78   40   41 1    
    79   40   42 1    
    80   40  102 1    
    81   41  103 1    
    82   41  104 1    
    83   41  105 1    
    84   42   43 am   BACKBONE|DICT|INTERRES
    85   42  106 1    
    86   43   44 2    
    87   43   45 1    
    88   45   46 1    
    89   45   49 1    
    90   45  107 1    
    91   46   47 1    
    92   46  108 1    
    93   46  109 1    
    94   47   48 1    
    95   48  110 1    
    96   48  111 1    
    97   49   50 am   BACKBONE|DICT|INTERRES
    98   49  112 1    
    99   50   51 2    
   100   50   52 1    
   101   52   53 1    
   102   52   54 1    
   103   52  113 1    
   104   53  114 1    
   105   53  115 1    
   106   53  116 1    
   107   54   55 am   BACKBONE|DICT|INTERRES
   108   54  117 1    
   109   55   56 2    
   110   55   57 1    
   111   57   58 1    
   112   57   59 1    
   113   57  118 1    
   114   58  119 1    
   115   58  120 1    
   116   58  121 1    
   117   59   60 am   BACKBONE|DICT|INTERRES
   118   59  122 1    
   119   60   61 2    
   120   60   62 1    
   121   62   63 1    
   122   62   64 1    
   123   62  123 1    
   124   63  124 1    
   125   63  125 1    
   126   63  126 1    
   127   64   65 am   BACKBONE|DICT|INTERRES
   128   64  127 1    
   129   65   66 2    
@<TRIPOS>SUBSTRUCTURE
     1 UNK         1 GROUP             0       ****    0 ROOT    
