@<TRIPOS>MOLECULE
3R135
127   129    1
SMALL
USER_CHARGES


@<TRIPOS>ATOM
      1 CA        -84.1525   31.5584  -73.6346 C.3       0 UNK        -0.1998 
      2 C         -82.8258   31.1401  -74.2503 C.2       0 UNK         0.4909 
      3 O         -82.4146   31.7076  -75.2627 O.2       0 UNK        -0.5240 
      4 N         -82.1535   30.1510  -73.6466 N.am      1 UNK        -0.4739 
      5 CA        -80.8533   29.6246  -74.0909 C.3       1 UNK         0.0864 
      6 C6        -80.1612   28.7770  -72.9929 C.3       11 UNK        -0.0881 
      7 S7        -80.0152   29.6590  -71.4014 S.3       11 UNK        -0.2682 
      8 C8        -79.4357   28.3236  -70.3092 C.3       11 UNK         0.0289 
      9 C9        -77.9447   28.0790  -70.4774 C.ar      11 UNK        -0.0687 
     10 C10       -77.4819   27.1067  -71.3694 C.ar      11 UNK        -0.0823 
     11 C11       -76.1101   26.9021  -71.5399 C.ar      11 UNK        -0.0830 
     12 C12       -75.2006   27.6632  -70.8017 C.ar      11 UNK        -0.1021 
     13 C13       -75.6521   28.6404  -69.9108 C.ar      11 UNK        -0.0753 
     14 C14       -77.0258   28.8391  -69.7472 C.ar      11 UNK        -0.0933 
     15 C15       -74.6551   29.4976  -69.1446 C.3       11 UNK         0.0166 
     16 S16       -74.5133   31.1719  -69.8518 S.3       11 UNK        -0.2615 
     17 C17       -73.9356   30.8228  -71.5502 C.3       11 UNK        -0.0865 
     18 CA        -75.0833   30.8953  -72.6000 C.3       10 UNK         0.0862 
     19 C         -75.2857   32.3476  -73.1319 C.2       10 UNK         0.5551 
     20 N         -74.9966   32.6362  -74.3953 N.am      10 UNK        -0.7319 
     21 O         -75.7154   33.2263  -72.3892 O.2       10 UNK        -0.5018 
     22 N         -74.9223   29.8590  -73.6380 N.am      10 UNK        -0.4509 
     23 C         -75.8904   29.4690  -74.4820 C.2       10 UNK         0.4899 
     24 O         -77.0240   29.9479  -74.4789 O.2       10 UNK        -0.4839 
     25 CA        -75.5432   28.3656  -75.5003 C.3       9 UNK         0.0222 
     26 CB        -76.2083   28.5947  -76.8714 C.3       9 UNK        -0.1966 
     27 N         -74.0952   28.1880  -75.6719 N.am      9 UNK        -0.4218 
     28 C         -73.5021   27.0140  -75.9178 C.2       9 UNK         0.5020 
     29 O         -74.1148   25.9527  -76.0341 O.2       9 UNK        -0.5274 
     30 CA        -71.9694   27.0204  -76.0031 C.3       8 UNK         0.0270 
     31 CB        -71.3488   26.9817  -74.5964 C.3       8 UNK        -0.1976 
     32 N         -71.4843   25.8645  -76.7622 N.am      8 UNK        -0.4313 
     33 C         -71.1896   25.8906  -78.0691 C.2       8 UNK         0.5041 
     34 O         -71.2926   26.9000  -78.7686 O.2       8 UNK        -0.5577 
     35 CA        -70.6573   24.5984  -78.7177 C.3       7 UNK         0.0284 
     36 CB        -69.1287   24.6700  -78.8711 C.3       7 UNK        -0.1958 
     37 N         -71.0025   23.3809  -77.9814 N.am      7 UNK        -0.4454 
     38 C         -72.1922   22.7700  -78.0408 C.2       7 UNK         0.5089 
     39 O         -73.1285   23.1618  -78.7380 O.2       7 UNK        -0.5125 
     40 CA        -72.3877   21.5118  -77.1710 C.3       6 UNK         0.0408 
     41 CB        -71.0725   20.8288  -76.7293 C.3       6 UNK        -0.1791 
     42 N         -73.2481   21.8060  -76.0210 N.am      6 UNK        -0.4762 
     43 C         -73.0093   22.7045  -75.0534 C.2       6 UNK         0.5007 
     44 O         -71.9599   23.3473  -74.9596 O.2       6 UNK        -0.5032 
     45 CA        -74.1867   22.9995  -74.1090 C.3       5 UNK         0.0783 
     46 C46       -73.7479   23.8239  -72.8693 C.3       11 UNK        -0.0857 
     47 S47       -75.1257   24.3208  -71.7807 S.3       11 UNK        -0.2512 
     48 C48       -75.6000   25.8985  -72.5568 C.3       11 UNK         0.0225 
     49 N         -75.1607   23.7116  -74.9291 N.am      5 UNK        -0.4615 
     50 C         -76.3728   23.2833  -75.2774 C.2       4 UNK         0.5053 
     51 O         -76.8605   22.2104  -74.9144 O.2       4 UNK        -0.5105 
     52 CA        -77.1378   24.1963  -76.2472 C.3       4 UNK         0.0263 
     53 CB        -76.7608   23.8706  -77.7013 C.3       4 UNK        -0.1981 
     54 N         -78.5824   24.0509  -76.0801 N.am      4 UNK        -0.4224 
     55 C         -79.2919   24.6635  -75.1263 C.2       3 UNK         0.4895 
     56 O         -78.8224   25.4736  -74.3246 O.2       3 UNK        -0.5091 
     57 CA        -80.7898   24.3321  -75.0654 C.3       3 UNK         0.0250 
     58 CB        -81.1953   23.8528  -73.6608 C.3       3 UNK        -0.1996 
     59 N         -81.5615   25.5220  -75.4120 N.am      3 UNK        -0.4254 
     60 C         -81.7400   25.9794  -76.6591 C.2       2 UNK         0.5004 
     61 O         -81.3882   25.3708  -77.6704 O.2       2 UNK        -0.5226 
     62 CA        -82.4159   27.3546  -76.8007 C.3       2 UNK         0.0269 
     63 CB        -83.9345   27.1973  -76.9805 C.3       2 UNK        -0.1926 
     64 N         -82.1512   28.2356  -75.6586 N.am      2 UNK        -0.4687 
     65 C         -80.9641   28.8055  -75.3956 C.2       1 UNK         0.5165 
     66 O         -79.9842   28.6968  -76.1322 O.2       1 UNK        -0.5079 
     67 H67       -84.9600   31.4184  -74.3526 H         1 UNK         0.0900 
     68 H68       -84.1215   32.6117  -73.3572 H         1 UNK         0.0900 
     69 H69       -84.3882   30.9799  -72.7415 H         1 UNK         0.0900 
     70 H70       -82.5199   29.7447  -72.7971 H         1 UNK         0.2959 
     71 H71       -80.2059   30.4772  -74.3104 H         1 UNK         0.1079 
     72 H72       -80.7059   27.8458  -72.8251 H         1 UNK         0.0837 
     73 H73       -79.1583   28.4914  -73.3179 H         1 UNK         0.0837 
     74 H74       -79.6467   28.6005  -69.2752 H         1 UNK         0.0685 
     75 H75       -80.0017   27.4106  -70.5001 H         1 UNK         0.0685 
     76 H76       -78.1880   26.5242  -71.9459 H         1 UNK         0.1434 
     77 H77       -74.1394   27.5061  -70.9378 H         1 UNK         0.1329 
     78 H78       -77.3788   29.6023  -69.0670 H         1 UNK         0.1335 
     79 H79       -74.9709   29.5790  -68.1036 H         1 UNK         0.0680 
     80 H80       -73.6705   29.0274  -69.1289 H         1 UNK         0.0680 
     81 H81       -73.4678   29.8381  -71.5494 H         1 UNK         0.1032 
     82 H82       -73.1274   31.5142  -71.7972 H         1 UNK         0.1032 
     83 H83       -76.0163   30.6417  -72.0917 H         1 UNK         0.0461 
     84 H84       -75.1349   33.5765  -74.7307 H         1 UNK         0.3453 
     85 H85       -74.6553   31.9231  -75.0180 H         1 UNK         0.3453 
     86 H86       -74.0247   29.4038  -73.6772 H         1 UNK         0.2984 
     87 H87       -75.9657   27.4517  -75.0792 H         1 UNK         0.0554 
     88 H88       -77.2919   28.6756  -76.7755 H         1 UNK         0.0847 
     89 H89       -76.0113   27.7654  -77.5510 H         1 UNK         0.0847 
     90 H90       -75.8510   29.5101  -77.3435 H         1 UNK         0.0847 
     91 H91       -73.5286   29.0242  -75.6347 H         1 UNK         0.3141 
     92 H92       -71.6556   27.9464  -76.4898 H         1 UNK         0.0743 
     93 H93       -71.7093   27.8035  -73.9766 H         1 UNK         0.0784 
     94 H94       -71.5800   26.0524  -74.0769 H         1 UNK         0.0784 
     95 H95       -70.2632   27.0689  -74.6456 H         1 UNK         0.0784 
     96 H96       -71.4715   24.9773  -76.2705 H         1 UNK         0.3213 
     97 H97       -71.0935   24.5352  -79.7173 H         1 UNK         0.0855 
     98 H98       -68.8352   25.5495  -79.4462 H         1 UNK         0.0814 
     99 H99       -68.7405   23.7978  -79.3974 H         1 UNK         0.0814 
    100 H100      -68.6273   24.7317  -77.9043 H         1 UNK         0.0814 
    101 H101      -70.3026   23.0073  -77.3564 H         1 UNK         0.3105 
    102 H102      -72.9321   20.7962  -77.7892 H         1 UNK         0.0547 
    103 H103      -70.4474   20.5894  -77.5907 H         1 UNK         0.0837 
    104 H104      -70.4804   21.4451  -76.0527 H         1 UNK         0.0837 
    105 H105      -71.2776   19.8894  -76.2162 H         1 UNK         0.0837 
    106 H106      -74.1647   21.3799  -76.0487 H         1 UNK         0.3020 
    107 H107      -74.5926   22.0460  -73.7634 H         1 UNK         0.1245 
    108 H108      -73.2004   24.7190  -73.1633 H         1 UNK         0.0781 
    109 H109      -73.0498   23.2384  -72.2685 H         1 UNK         0.0781 
    110 H110      -76.3596   25.7073  -73.3148 H         1 UNK         0.0836 
    111 H111      -74.7531   26.3376  -73.0846 H         1 UNK         0.0836 
    112 H112      -74.8086   24.5741  -75.3531 H         1 UNK         0.3022 
    113 H113      -76.8621   25.2344  -76.0460 H         1 UNK         0.0747 
    114 H114      -77.2855   24.5203  -78.4020 H         1 UNK         0.0793 
    115 H115      -75.6919   24.0164  -77.8667 H         1 UNK         0.0793 
    116 H116      -76.9930   22.8367  -77.9597 H         1 UNK         0.0793 
    117 H117      -79.0426   23.3860  -76.6847 H         1 UNK         0.3047 
    118 H118      -81.0189   23.5356  -75.7771 H         1 UNK         0.0822 
    119 H119      -82.2528   23.5908  -73.6211 H         1 UNK         0.0807 
    120 H120      -81.0093   24.6134  -72.9012 H         1 UNK         0.0807 
    121 H121      -80.6299   22.9644  -73.3763 H         1 UNK         0.0807 
    122 H122      -81.8590   26.1063  -74.6455 H         1 UNK         0.2946 
    123 H123      -82.0096   27.8263  -77.6987 H         1 UNK         0.1144 
    124 H124      -84.4153   28.1603  -77.1534 H         1 UNK         0.0793 
    125 H125      -84.4011   26.7396  -76.1073 H         1 UNK         0.0793 
    126 H126      -84.1611   26.5649  -77.8402 H         1 UNK         0.0793 
    127 H127      -82.9125   28.4019  -75.0162 H         1 UNK         0.2896 
@<TRIPOS>BOND
     1    1    2 1    
     2    1   67 1    
     3    1   68 1    
     4    1   69 1    
     5    2    3 2    
     6    2    4 am   BACKBONE|DICT|INTERRES
     7    4    5 1    
     8    4   70 1    
     9    5    6 1    
    10    5   65 1    
    11    5   71 1    
    12    6    7 1    
    13    6   72 1    
    14    6   73 1    
    15    7    8 1    
    16    8    9 1    
    17    8   74 1    
    18    8   75 1    
    19    9   10 ar   
    20    9   14 ar   
    21   10   11 ar   
    22   10   76 1    
    23   11   12 ar   
    24   11   48 1    
    25   12   13 ar   
    26   12   77 1    
    27   13   14 ar   
    28   13   15 1    
    29   14   78 1    
    30   15   16 1    
    31   15   79 1    
    32   15   80 1    
    33   16   17 1    
    34   17   18 1    
    35   17   81 1    
    36   17   82 1    
    37   18   19 1    
    38   18   22 1    
    39   18   83 1    
    40   19   20 am   BACKBONE|DICT|INTERRES
    41   19   21 2    
    42   20   84 1    
    43   20   85 1    
    44   22   23 am   BACKBONE|DICT|INTERRES
    45   22   86 1    
    46   23   24 2    
    47   23   25 1    
    48   25   26 1    
    49   25   27 1    
    50   25   87 1    
    51   26   88 1    
    52   26   89 1    
    53   26   90 1    
    54   27   28 am   BACKBONE|DICT|INTERRES
    55   27   91 1    
    56   28   29 2    
    57   28   30 1    
    58   30   31 1    
    59   30   32 1    
    60   30   92 1    
    61   31   93 1    
    62   31   94 1    
    63   31   95 1    
    64   32   33 am   BACKBONE|DICT|INTERRES
    65   32   96 1    
    66   33   34 2    
    67   33   35 1    
    68   35   36 1    
    69   35   37 1    
    70   35   97 1    
    71   36   98 1    
    72   36   99 1    
    73   36  100 1    
    74   37   38 am   BACKBONE|DICT|INTERRES
    75   37  101 1    
    76   38   39 2    
    77   38   40 1    
    78   40   41 1    
    79   40   42 1    
    80   40  102 1    
    81   41  103 1    
    82   41  104 1    
    83   41  105 1    
    84   42   43 am   BACKBONE|DICT|INTERRES
    85   42  106 1    
    86   43   44 2    
    87   43   45 1    
    88   45   46 1    
    89   45   49 1    
    90   45  107 1    
    91   46   47 1    
    92   46  108 1    
    93   46  109 1    
    94   47   48 1    
    95   48  110 1    
    96   48  111 1    
    97   49   50 am   BACKBONE|DICT|INTERRES
    98   49  112 1    
    99   50   51 2    
   100   50   52 1    
   101   52   53 1    
   102   52   54 1    
   103   52  113 1    
   104   53  114 1    
   105   53  115 1    
   106   53  116 1    
   107   54   55 am   BACKBONE|DICT|INTERRES
   108   54  117 1    
   109   55   56 2    
   110   55   57 1    
   111   57   58 1    
   112   57   59 1    
   113   57  118 1    
   114   58  119 1    
   115   58  120 1    
   116   58  121 1    
   117   59   60 am   BACKBONE|DICT|INTERRES
   118   59  122 1    
   119   60   61 2    
   120   60   62 1    
   121   62   63 1    
   122   62   64 1    
   123   62  123 1    
   124   63  124 1    
   125   63  125 1    
   126   63  126 1    
   127   64   65 am   BACKBONE|DICT|INTERRES
   128   64  127 1    
   129   65   66 2    
@<TRIPOS>SUBSTRUCTURE
     1 UNK         1 GROUP             0       ****    0 ROOT    
