@<TRIPOS>MOLECULE
3R135
127   129    1
SMALL
USER_CHARGES


@<TRIPOS>ATOM
      1 CA        -84.0900   26.9868  -70.8410 C.3       0 UNK        -0.1998 
      2 C         -83.7891   27.1385  -72.3247 C.2       0 UNK         0.4909 
      3 O         -84.7144   27.1785  -73.1367 O.2       0 UNK        -0.5240 
      4 N         -82.5029   27.2311  -72.6828 N.am      1 UNK        -0.4739 
      5 CA        -82.0293   27.3161  -74.0672 C.3       1 UNK         0.0864 
      6 C6        -80.5775   27.8481  -74.1419 C.3       11 UNK        -0.0881 
      7 S7        -80.4926   29.6493  -73.8678 S.3       11 UNK        -0.2682 
      8 C8        -80.0153   29.7754  -72.1146 C.3       11 UNK         0.0289 
      9 C9        -78.5572   29.4144  -71.8522 C.ar      11 UNK        -0.0687 
     10 C10       -78.2402   28.3430  -71.0112 C.ar      11 UNK        -0.0823 
     11 C11       -76.9102   28.0677  -70.6785 C.ar      11 UNK        -0.0830 
     12 C12       -75.8915   28.8570  -71.2214 C.ar      11 UNK        -0.1021 
     13 C13       -76.1866   29.9185  -72.0838 C.ar      11 UNK        -0.0753 
     14 C14       -77.5261   30.1983  -72.3824 C.ar      11 UNK        -0.0933 
     15 C15       -75.0546   30.7863  -72.6323 C.3       11 UNK         0.0166 
     16 S16       -75.1912   31.0948  -74.4234 S.3       11 UNK        -0.2615 
     17 C17       -73.5709   31.8412  -74.8095 C.3       11 UNK        -0.0865 
     18 CA        -72.6624   30.8930  -75.6519 C.3       10 UNK         0.0862 
     19 C         -71.4775   31.6377  -76.3442 C.2       10 UNK         0.5551 
     20 N         -70.3455   30.9886  -76.5904 N.am      10 UNK        -0.7319 
     21 O         -71.5909   32.8098  -76.6958 O.2       10 UNK        -0.5018 
     22 N         -72.2777   29.6622  -74.9287 N.am      10 UNK        -0.4509 
     23 C         -71.4810   29.6132  -73.8512 C.2       10 UNK         0.4899 
     24 O         -70.9913   30.6117  -73.3222 O.2       10 UNK        -0.4839 
     25 CA        -71.1597   28.2406  -73.2392 C.3       9 UNK         0.0222 
     26 CB        -71.8329   28.1006  -71.8640 C.3       9 UNK        -0.1966 
     27 N         -71.5517   27.0983  -74.0709 N.am      9 UNK        -0.4218 
     28 C         -70.7150   26.4206  -74.8683 C.2       9 UNK         0.5020 
     29 O         -69.5727   26.7948  -75.1381 O.2       9 UNK        -0.5274 
     30 CA        -71.2136   25.0724  -75.4184 C.3       8 UNK         0.0270 
     31 CB        -71.3799   24.0435  -74.2863 C.3       8 UNK        -0.1976 
     32 N         -72.4685   25.1829  -76.1578 N.am      8 UNK        -0.4313 
     33 C         -72.5848   25.6826  -77.3954 C.2       8 UNK         0.5041 
     34 O         -71.6358   26.0865  -78.0680 O.2       8 UNK        -0.5577 
     35 CA        -74.0077   25.7585  -77.9747 C.3       7 UNK         0.0284 
     36 CB        -74.4174   24.4321  -78.6353 C.3       7 UNK        -0.1958 
     37 N         -74.9789   26.1308  -76.9440 N.am      7 UNK        -0.4454 
     38 C         -75.0964   27.3784  -76.4700 C.2       7 UNK         0.5089 
     39 O         -74.4892   28.3386  -76.9401 O.2       7 UNK        -0.5125 
     40 CA        -76.0151   27.5994  -75.2599 C.3       6 UNK         0.0408 
     41 CB        -77.3638   28.1789  -75.6972 C.3       6 UNK        -0.1791 
     42 N         -76.2209   26.3998  -74.4478 N.am      6 UNK        -0.4762 
     43 C         -75.2860   25.9033  -73.6249 C.2       6 UNK         0.5007 
     44 O         -74.1596   26.3841  -73.5118 O.2       6 UNK        -0.5032 
     45 CA        -75.6276   24.6051  -72.8649 C.3       5 UNK         0.0783 
     46 C46       -76.4284   24.8867  -71.5712 C.3       11 UNK        -0.0857 
     47 S47       -75.4253   25.7140  -70.2927 S.3       11 UNK        -0.2512 
     48 C48       -76.5861   26.9719  -69.6670 C.3       11 UNK         0.0225 
     49 N         -76.3222   23.6342  -73.7127 N.am      5 UNK        -0.4615 
     50 C         -75.8787   23.1647  -74.8855 C.2       4 UNK         0.5053 
     51 O         -74.7817   23.4516  -75.3666 O.2       4 UNK        -0.5105 
     52 CA        -76.8468   22.2811  -75.6910 C.3       4 UNK         0.0263 
     53 CB        -77.8827   21.5410  -74.8149 C.3       4 UNK        -0.1981 
     54 N         -77.5276   23.0334  -76.7536 N.am      4 UNK        -0.4224 
     55 C         -78.2541   24.1566  -76.6277 C.2       3 UNK         0.4895 
     56 O         -78.3918   24.7785  -75.5719 O.2       3 UNK        -0.5091 
     57 CA        -78.9365   24.7106  -77.8934 C.3       3 UNK         0.0250 
     58 CB        -78.7917   23.8214  -79.1510 C.3       3 UNK        -0.1996 
     59 N         -80.3456   25.0293  -77.6305 N.am      3 UNK        -0.4254 
     60 C         -81.3150   24.1754  -77.2617 C.2       2 UNK         0.5004 
     61 O         -81.1661   22.9556  -77.1633 O.2       2 UNK        -0.5226 
     62 CA        -82.6822   24.8162  -76.9509 C.3       2 UNK         0.0269 
     63 CB        -83.7326   23.8024  -76.4453 C.3       2 UNK        -0.1926 
     64 N         -82.5639   25.9614  -76.0355 N.am      2 UNK        -0.4687 
     65 C         -82.1393   25.9434  -74.7613 C.2       1 UNK         0.5165 
     66 O         -81.8167   24.9242  -74.1461 O.2       1 UNK        -0.5079 
     67 H67       -83.1818   26.9839  -70.2385 H         1 UNK         0.0900 
     68 H68       -84.6202   26.0522  -70.6598 H         1 UNK         0.0900 
     69 H69       -84.7198   27.8080  -70.5001 H         1 UNK         0.0900 
     70 H70       -81.7848   27.1483  -71.9792 H         1 UNK         0.2959 
     71 H71       -82.6801   28.0125  -74.6018 H         1 UNK         0.1079 
     72 H72       -80.1638   27.6706  -75.1360 H         1 UNK         0.0837 
     73 H73       -79.9203   27.3210  -73.4476 H         1 UNK         0.0837 
     74 H74       -80.1784   30.8038  -71.7894 H         1 UNK         0.0685 
     75 H75       -80.6876   29.1620  -71.5138 H         1 UNK         0.0685 
     76 H76       -79.0340   27.7501  -70.5780 H         1 UNK         0.1434 
     77 H77       -74.8667   28.6522  -70.9486 H         1 UNK         0.1329 
     78 H78       -77.7698   31.0357  -73.0218 H         1 UNK         0.1335 
     79 H79       -75.0506   31.7407  -72.1045 H         1 UNK         0.0680 
     80 H80       -74.0908   30.3157  -72.4354 H         1 UNK         0.0680 
     81 H81       -73.0686   32.1592  -73.8951 H         1 UNK         0.1032 
     82 H82       -73.7834   32.7585  -75.3611 H         1 UNK         0.1032 
     83 H83       -73.2642   30.5551  -76.4943 H         1 UNK         0.0461 
     84 H84       -70.2422   30.0239  -76.3183 H         1 UNK         0.3453 
     85 H85       -69.5876   31.4705  -77.0475 H         1 UNK         0.3453 
     86 H86       -72.6414   28.8010  -75.3111 H         1 UNK         0.2984 
     87 H87       -70.0804   28.2150  -73.0747 H         1 UNK         0.0554 
     88 H88       -71.5505   27.1675  -71.3764 H         1 UNK         0.0847 
     89 H89       -72.9181   28.1152  -71.9496 H         1 UNK         0.0847 
     90 H90       -71.5459   28.9147  -71.1969 H         1 UNK         0.0847 
     91 H91       -72.4952   26.7389  -73.9153 H         1 UNK         0.3141 
     92 H92       -70.4504   24.6921  -76.1010 H         1 UNK         0.0743 
     93 H93       -72.1610   24.3330  -73.5822 H         1 UNK         0.0784 
     94 H94       -71.6380   23.0607  -74.6814 H         1 UNK         0.0784 
     95 H95       -70.4541   23.9325  -73.7201 H         1 UNK         0.0784 
     96 H96       -73.3001   24.8123  -75.7091 H         1 UNK         0.3213 
     97 H97       -74.0095   26.5286  -78.7497 H         1 UNK         0.0855 
     98 H98       -73.7261   24.1725  -79.4382 H         1 UNK         0.0814 
     99 H99       -75.4114   24.5008  -79.0761 H         1 UNK         0.0814 
    100 H100      -74.4172   23.6014  -77.9303 H         1 UNK         0.0814 
    101 H101      -75.4598   25.3822  -76.4651 H         1 UNK         0.3105 
    102 H102      -75.5264   28.3376  -74.6249 H         1 UNK         0.0547 
    103 H103      -77.2271   29.0584  -76.3280 H         1 UNK         0.0837 
    104 H104      -77.9582   27.4580  -76.2577 H         1 UNK         0.0837 
    105 H105      -77.9334   28.5000  -74.8278 H         1 UNK         0.0837 
    106 H106      -77.0985   25.9005  -74.5669 H         1 UNK         0.3020 
    107 H107      -74.6779   24.1434  -72.5852 H         1 UNK         0.1245 
    108 H108      -76.7798   23.9487  -71.1384 H         1 UNK         0.0781 
    109 H109      -77.3252   25.4696  -71.7903 H         1 UNK         0.0781 
    110 H110      -76.1477   27.4371  -68.7831 H         1 UNK         0.0836 
    111 H111      -77.4941   26.4719  -69.3260 H         1 UNK         0.0836 
    112 H112      -77.2592   23.3839  -73.4331 H         1 UNK         0.3022 
    113 H113      -76.2314   21.5266  -76.1836 H         1 UNK         0.0747 
    114 H114      -78.4409   20.8151  -75.4064 H         1 UNK         0.0793 
    115 H115      -77.3975   20.9893  -74.0084 H         1 UNK         0.0793 
    116 H116      -78.6105   22.2187  -74.3667 H         1 UNK         0.0793 
    117 H117      -77.4651   22.6251  -77.6754 H         1 UNK         0.3047 
    118 H118      -78.4424   25.6596  -78.1067 H         1 UNK         0.0822 
    119 H119      -79.2959   24.2728  -80.0056 H         1 UNK         0.0807 
    120 H120      -79.2192   22.8282  -79.0082 H         1 UNK         0.0807 
    121 H121      -77.7462   23.6975  -79.4346 H         1 UNK         0.0807 
    122 H122      -80.5754   26.0125  -77.6479 H         1 UNK         0.2946 
    123 H123      -83.0493   25.2121  -77.8996 H         1 UNK         0.1144 
    124 H124      -83.9078   23.0222  -77.1871 H         1 UNK         0.0793 
    125 H125      -84.6902   24.2859  -76.2523 H         1 UNK         0.0793 
    126 H126      -83.4153   23.3078  -75.5269 H         1 UNK         0.0793 
    127 H127      -82.8057   26.8567  -76.4390 H         1 UNK         0.2896 
@<TRIPOS>BOND
     1    1    2 1    
     2    1   67 1    
     3    1   68 1    
     4    1   69 1    
     5    2    3 2    
     6    2    4 am   BACKBONE|DICT|INTERRES
     7    4    5 1    
     8    4   70 1    
     9    5    6 1    
    10    5   65 1    
    11    5   71 1    
    12    6    7 1    
    13    6   72 1    
    14    6   73 1    
    15    7    8 1    
    16    8    9 1    
    17    8   74 1    
    18    8   75 1    
    19    9   10 ar   
    20    9   14 ar   
    21   10   11 ar   
    22   10   76 1    
    23   11   12 ar   
    24   11   48 1    
    25   12   13 ar   
    26   12   77 1    
    27   13   14 ar   
    28   13   15 1    
    29   14   78 1    
    30   15   16 1    
    31   15   79 1    
    32   15   80 1    
    33   16   17 1    
    34   17   18 1    
    35   17   81 1    
    36   17   82 1    
    37   18   19 1    
    38   18   22 1    
    39   18   83 1    
    40   19   20 am   BACKBONE|DICT|INTERRES
    41   19   21 2    
    42   20   84 1    
    43   20   85 1    
    44   22   23 am   BACKBONE|DICT|INTERRES
    45   22   86 1    
    46   23   24 2    
    47   23   25 1    
    48   25   26 1    
    49   25   27 1    
    50   25   87 1    
    51   26   88 1    
    52   26   89 1    
    53   26   90 1    
    54   27   28 am   BACKBONE|DICT|INTERRES
    55   27   91 1    
    56   28   29 2    
    57   28   30 1    
    58   30   31 1    
    59   30   32 1    
    60   30   92 1    
    61   31   93 1    
    62   31   94 1    
    63   31   95 1    
    64   32   33 am   BACKBONE|DICT|INTERRES
    65   32   96 1    
    66   33   34 2    
    67   33   35 1    
    68   35   36 1    
    69   35   37 1    
    70   35   97 1    
    71   36   98 1    
    72   36   99 1    
    73   36  100 1    
    74   37   38 am   BACKBONE|DICT|INTERRES
    75   37  101 1    
    76   38   39 2    
    77   38   40 1    
    78   40   41 1    
    79   40   42 1    
    80   40  102 1    
    81   41  103 1    
    82   41  104 1    
    83   41  105 1    
    84   42   43 am   BACKBONE|DICT|INTERRES
    85   42  106 1    
    86   43   44 2    
    87   43   45 1    
    88   45   46 1    
    89   45   49 1    
    90   45  107 1    
    91   46   47 1    
    92   46  108 1    
    93   46  109 1    
    94   47   48 1    
    95   48  110 1    
    96   48  111 1    
    97   49   50 am   BACKBONE|DICT|INTERRES
    98   49  112 1    
    99   50   51 2    
   100   50   52 1    
   101   52   53 1    
   102   52   54 1    
   103   52  113 1    
   104   53  114 1    
   105   53  115 1    
   106   53  116 1    
   107   54   55 am   BACKBONE|DICT|INTERRES
   108   54  117 1    
   109   55   56 2    
   110   55   57 1    
   111   57   58 1    
   112   57   59 1    
   113   57  118 1    
   114   58  119 1    
   115   58  120 1    
   116   58  121 1    
   117   59   60 am   BACKBONE|DICT|INTERRES
   118   59  122 1    
   119   60   61 2    
   120   60   62 1    
   121   62   63 1    
   122   62   64 1    
   123   62  123 1    
   124   63  124 1    
   125   63  125 1    
   126   63  126 1    
   127   64   65 am   BACKBONE|DICT|INTERRES
   128   64  127 1    
   129   65   66 2    
@<TRIPOS>SUBSTRUCTURE
     1 UNK         1 GROUP             0       ****    0 ROOT    
