@<TRIPOS>MOLECULE
3R135
127   129    1
SMALL
USER_CHARGES


@<TRIPOS>ATOM
      1 CA        -85.1701   31.8051  -71.6668 C.3       0 UNK        -0.1998 
      2 C         -84.5023   30.8299  -72.6252 C.2       0 UNK         0.4909 
      3 O         -85.1875   30.2020  -73.4340 O.2       0 UNK        -0.5240 
      4 N         -83.1712   30.7063  -72.5457 N.am      1 UNK        -0.4739 
      5 CA        -82.3693   29.7658  -73.3364 C.3       1 UNK         0.0864 
      6 C6        -80.9295   30.3054  -73.5548 C.3       11 UNK        -0.0881 
      7 S7        -80.2181   29.7225  -75.1326 S.3       11 UNK        -0.2682 
      8 C8        -78.4315   29.9558  -74.8748 C.3       11 UNK         0.0289 
      9 C9        -77.8800   29.0947  -73.7452 C.ar      11 UNK        -0.0687 
     10 C10       -77.7965   27.7057  -73.8876 C.ar      11 UNK        -0.0823 
     11 C11       -77.3345   26.9099  -72.8339 C.ar      11 UNK        -0.0830 
     12 C12       -76.9280   27.5183  -71.6423 C.ar      11 UNK        -0.1021 
     13 C13       -76.9915   28.9066  -71.4933 C.ar      11 UNK        -0.0753 
     14 C14       -77.4687   29.6892  -72.5484 C.ar      11 UNK        -0.0933 
     15 C15       -76.5966   29.5491  -70.1713 C.3       11 UNK         0.0166 
     16 S16       -74.8016   29.8236  -70.0424 S.3       11 UNK        -0.2615 
     17 C17       -74.5616   31.3176  -71.0721 C.3       11 UNK        -0.0865 
     18 CA        -73.5605   31.1194  -72.2409 C.3       10 UNK         0.0862 
     19 C         -72.0837   31.0476  -71.7441 C.2       10 UNK         0.5551 
     20 N         -71.3375   29.9766  -71.9888 N.am      10 UNK        -0.7319 
     21 O         -71.6006   31.9974  -71.1322 O.2       10 UNK        -0.5018 
     22 N         -73.9812   30.0251  -73.1266 N.am      10 UNK        -0.4509 
     23 C         -73.5624   29.8530  -74.3840 C.2       10 UNK         0.4899 
     24 O         -72.8522   30.6523  -74.9974 O.2       10 UNK        -0.4839 
     25 CA        -74.0109   28.5529  -75.0700 C.3       9 UNK         0.0222 
     26 CB        -74.9413   28.8621  -76.2511 C.3       9 UNK        -0.1966 
     27 N         -72.8795   27.7483  -75.5413 N.am      9 UNK        -0.4218 
     28 C         -71.8620   27.3129  -74.7798 C.2       9 UNK         0.5020 
     29 O         -71.7859   27.5241  -73.5678 O.2       9 UNK        -0.5274 
     30 CA        -70.7519   26.4816  -75.4520 C.3       8 UNK         0.0270 
     31 CB        -70.5389   25.1490  -74.7111 C.3       8 UNK        -0.1976 
     32 N         -71.0105   26.2069  -76.8691 N.am      8 UNK        -0.4313 
     33 C         -70.6347   27.0050  -77.8794 C.2       8 UNK         0.5041 
     34 O         -70.0111   28.0545  -77.7179 O.2       8 UNK        -0.5577 
     35 CA        -71.0121   26.5819  -79.3136 C.3       7 UNK         0.0284 
     36 CB        -69.7959   25.9705  -80.0286 C.3       7 UNK        -0.1958 
     37 N         -72.1343   25.6422  -79.3924 N.am      7 UNK        -0.4454 
     38 C         -73.3975   25.9222  -79.0455 C.2       7 UNK         0.5089 
     39 O         -73.7566   27.0224  -78.6265 O.2       7 UNK        -0.5125 
     40 CA        -74.4294   24.7769  -79.1220 C.3       6 UNK         0.0408 
     41 CB        -73.9323   23.5243  -79.8790 C.3       6 UNK        -0.1791 
     42 N         -74.9175   24.4008  -77.7891 N.am      6 UNK        -0.4762 
     43 C         -74.1667   24.0551  -76.7301 C.2       6 UNK         0.5007 
     44 O         -72.9366   23.9899  -76.7548 O.2       6 UNK        -0.5032 
     45 CA        -74.9102   23.7326  -75.4201 C.3       5 UNK         0.0783 
     46 C46       -75.0934   25.0192  -74.5844 C.3       11 UNK        -0.0857 
     47 S47       -75.6835   24.6673  -72.9019 S.3       11 UNK        -0.2512 
     48 C48       -77.3493   25.3903  -72.9464 C.3       11 UNK         0.0225 
     49 N         -76.1692   23.0092  -75.6568 N.am      5 UNK        -0.4615 
     50 C         -76.2173   21.7303  -76.0532 C.2       4 UNK         0.5053 
     51 O         -75.2063   21.0535  -76.2469 O.2       4 UNK        -0.5105 
     52 CA        -77.5872   21.0727  -76.3099 C.3       4 UNK         0.0263 
     53 CB        -77.7767   19.8147  -75.4352 C.3       4 UNK        -0.1981 
     54 N         -78.7715   21.9431  -76.2418 N.am      4 UNK        -0.4224 
     55 C         -79.3474   22.4904  -75.1618 C.2       3 UNK         0.4895 
     56 O         -78.8539   22.4926  -74.0329 O.2       3 UNK        -0.5091 
     57 CA        -80.7495   23.0765  -75.3981 C.3       3 UNK         0.0250 
     58 CB        -81.7780   21.9419  -75.5580 C.3       3 UNK        -0.1996 
     59 N         -81.1858   23.9357  -74.2960 N.am      3 UNK        -0.4254 
     60 C         -80.9925   25.2570  -74.2462 C.2       2 UNK         0.5004 
     61 O         -80.3848   25.8940  -75.1112 O.2       2 UNK        -0.5226 
     62 CA        -81.6012   25.9925  -73.0435 C.3       2 UNK         0.0269 
     63 CB        -80.7660   25.7958  -71.7632 C.3       2 UNK        -0.1926 
     64 N         -81.7048   27.4094  -73.3793 N.am      2 UNK        -0.4687 
     65 C         -82.3918   28.3457  -72.7195 C.2       1 UNK         0.5165 
     66 O         -83.0162   28.1202  -71.6785 O.2       1 UNK        -0.5079 
     67 H67       -85.8833   31.2784  -71.0333 H         1 UNK         0.0900 
     68 H68       -85.7093   32.5702  -72.2248 H         1 UNK         0.0900 
     69 H69       -84.4467   32.3030  -71.0214 H         1 UNK         0.0900 
     70 H70       -82.6694   31.2195  -71.8350 H         1 UNK         0.2959 
     71 H71       -82.8489   29.6804  -74.3147 H         1 UNK         0.1079 
     72 H72       -80.9343   31.3957  -73.6018 H         1 UNK         0.0837 
     73 H73       -80.2818   30.0458  -72.7159 H         1 UNK         0.0837 
     74 H74       -77.9290   29.6981  -75.8062 H         1 UNK         0.0685 
     75 H75       -78.2287   31.0130  -74.6968 H         1 UNK         0.0685 
     76 H76       -78.1309   27.2455  -74.8073 H         1 UNK         0.1434 
     77 H77       -76.5803   26.9061  -70.8212 H         1 UNK         0.1329 
     78 H78       -77.5414   30.7614  -72.4310 H         1 UNK         0.1335 
     79 H79       -77.1263   30.4918  -70.0245 H         1 UNK         0.0680 
     80 H80       -76.9069   28.9017  -69.3497 H         1 UNK         0.0680 
     81 H81       -74.2395   32.1349  -70.4239 H         1 UNK         0.1032 
     82 H82       -75.5208   31.6420  -71.4754 H         1 UNK         0.1032 
     83 H83       -73.6064   32.0319  -72.8387 H         1 UNK         0.0461 
     84 H84       -70.3860   29.9576  -71.6595 H         1 UNK         0.3453 
     85 H85       -71.7047   29.1832  -72.5050 H         1 UNK         0.3453 
     86 H86       -74.5489   29.3114  -72.6908 H         1 UNK         0.2984 
     87 H87       -74.5683   27.9545  -74.3465 H         1 UNK         0.0554 
     88 H88       -75.4433   27.9636  -76.6102 H         1 UNK         0.0847 
     89 H89       -75.7101   29.5758  -75.9615 H         1 UNK         0.0847 
     90 H90       -74.3975   29.3027  -77.0877 H         1 UNK         0.0847 
     91 H91       -72.8581   27.5447  -76.5322 H         1 UNK         0.3141 
     92 H92       -69.8284   27.0576  -75.3626 H         1 UNK         0.0743 
     93 H93       -70.2147   25.3216  -73.6839 H         1 UNK         0.0784 
     94 H94       -71.4541   24.5588  -74.6638 H         1 UNK         0.0784 
     95 H95       -69.7714   24.5430  -75.1926 H         1 UNK         0.0784 
     96 H96       -71.5558   25.3719  -77.0696 H         1 UNK         0.3213 
     97 H97       -71.3020   27.4889  -79.8488 H         1 UNK         0.0855 
     98 H98       -68.9499   26.6595  -80.0182 H         1 UNK         0.0814 
     99 H99       -70.0171   25.7500  -81.0731 H         1 UNK         0.0814 
    100 H100      -69.4683   25.0466  -79.5502 H         1 UNK         0.0814 
    101 H101      -71.9200   24.7025  -79.6935 H         1 UNK         0.3105 
    102 H102      -75.2855   25.1751  -79.6685 H         1 UNK         0.0547 
    103 H103      -73.6044   23.7752  -80.8888 H         1 UNK         0.0837 
    104 H104      -73.1042   23.0305  -79.3692 H         1 UNK         0.0837 
    105 H105      -74.7323   22.7910  -79.9806 H         1 UNK         0.0837 
    106 H106      -75.9183   24.4471  -77.6606 H         1 UNK         0.3020 
    107 H107      -74.2513   23.0681  -74.8550 H         1 UNK         0.1245 
    108 H108      -74.1370   25.5278  -74.4672 H         1 UNK         0.0781 
    109 H109      -75.7584   25.7253  -75.0848 H         1 UNK         0.0781 
    110 H110      -77.9190   24.9767  -72.1140 H         1 UNK         0.0836 
    111 H111      -77.8645   25.0693  -73.8523 H         1 UNK         0.0836 
    112 H112      -77.0325   23.4904  -75.4546 H         1 UNK         0.3022 
    113 H113      -77.5476   20.7341  -77.3465 H         1 UNK         0.0747 
    114 H114      -78.7133   19.3072  -75.6658 H         1 UNK         0.0793 
    115 H115      -76.9728   19.0962  -75.6010 H         1 UNK         0.0793 
    116 H116      -77.7777   20.0557  -74.3717 H         1 UNK         0.0793 
    117 H117      -79.2597   22.0440  -77.1217 H         1 UNK         0.3047 
    118 H118      -80.7283   23.6557  -76.3243 H         1 UNK         0.0822 
    119 H119      -82.7780   22.3365  -75.7395 H         1 UNK         0.0807 
    120 H120      -81.8238   21.3101  -74.6698 H         1 UNK         0.0807 
    121 H121      -81.5320   21.2966  -76.4024 H         1 UNK         0.0807 
    122 H122      -81.6374   23.4736  -73.5199 H         1 UNK         0.2946 
    123 H123      -82.6074   25.5983  -72.8844 H         1 UNK         0.1144 
    124 H124      -80.4913   24.7506  -71.6161 H         1 UNK         0.0793 
    125 H125      -81.3221   26.1069  -70.8790 H         1 UNK         0.0793 
    126 H126      -79.8489   26.3817  -71.7916 H         1 UNK         0.0793 
    127 H127      -81.1984   27.6653  -74.2215 H         1 UNK         0.2896 
@<TRIPOS>BOND
     1    1    2 1    
     2    1   67 1    
     3    1   68 1    
     4    1   69 1    
     5    2    3 2    
     6    2    4 am   BACKBONE|DICT|INTERRES
     7    4    5 1    
     8    4   70 1    
     9    5    6 1    
    10    5   65 1    
    11    5   71 1    
    12    6    7 1    
    13    6   72 1    
    14    6   73 1    
    15    7    8 1    
    16    8    9 1    
    17    8   74 1    
    18    8   75 1    
    19    9   10 ar   
    20    9   14 ar   
    21   10   11 ar   
    22   10   76 1    
    23   11   12 ar   
    24   11   48 1    
    25   12   13 ar   
    26   12   77 1    
    27   13   14 ar   
    28   13   15 1    
    29   14   78 1    
    30   15   16 1    
    31   15   79 1    
    32   15   80 1    
    33   16   17 1    
    34   17   18 1    
    35   17   81 1    
    36   17   82 1    
    37   18   19 1    
    38   18   22 1    
    39   18   83 1    
    40   19   20 am   BACKBONE|DICT|INTERRES
    41   19   21 2    
    42   20   84 1    
    43   20   85 1    
    44   22   23 am   BACKBONE|DICT|INTERRES
    45   22   86 1    
    46   23   24 2    
    47   23   25 1    
    48   25   26 1    
    49   25   27 1    
    50   25   87 1    
    51   26   88 1    
    52   26   89 1    
    53   26   90 1    
    54   27   28 am   BACKBONE|DICT|INTERRES
    55   27   91 1    
    56   28   29 2    
    57   28   30 1    
    58   30   31 1    
    59   30   32 1    
    60   30   92 1    
    61   31   93 1    
    62   31   94 1    
    63   31   95 1    
    64   32   33 am   BACKBONE|DICT|INTERRES
    65   32   96 1    
    66   33   34 2    
    67   33   35 1    
    68   35   36 1    
    69   35   37 1    
    70   35   97 1    
    71   36   98 1    
    72   36   99 1    
    73   36  100 1    
    74   37   38 am   BACKBONE|DICT|INTERRES
    75   37  101 1    
    76   38   39 2    
    77   38   40 1    
    78   40   41 1    
    79   40   42 1    
    80   40  102 1    
    81   41  103 1    
    82   41  104 1    
    83   41  105 1    
    84   42   43 am   BACKBONE|DICT|INTERRES
    85   42  106 1    
    86   43   44 2    
    87   43   45 1    
    88   45   46 1    
    89   45   49 1    
    90   45  107 1    
    91   46   47 1    
    92   46  108 1    
    93   46  109 1    
    94   47   48 1    
    95   48  110 1    
    96   48  111 1    
    97   49   50 am   BACKBONE|DICT|INTERRES
    98   49  112 1    
    99   50   51 2    
   100   50   52 1    
   101   52   53 1    
   102   52   54 1    
   103   52  113 1    
   104   53  114 1    
   105   53  115 1    
   106   53  116 1    
   107   54   55 am   BACKBONE|DICT|INTERRES
   108   54  117 1    
   109   55   56 2    
   110   55   57 1    
   111   57   58 1    
   112   57   59 1    
   113   57  118 1    
   114   58  119 1    
   115   58  120 1    
   116   58  121 1    
   117   59   60 am   BACKBONE|DICT|INTERRES
   118   59  122 1    
   119   60   61 2    
   120   60   62 1    
   121   62   63 1    
   122   62   64 1    
   123   62  123 1    
   124   63  124 1    
   125   63  125 1    
   126   63  126 1    
   127   64   65 am   BACKBONE|DICT|INTERRES
   128   64  127 1    
   129   65   66 2    
@<TRIPOS>SUBSTRUCTURE
     1 UNK         1 GROUP             0       ****    0 ROOT    
