@<TRIPOS>MOLECULE
3R135
127   129    1
SMALL
USER_CHARGES


@<TRIPOS>ATOM
      1 CA        -76.1067   29.2953  -76.2951 C.3       0 UNK        -0.1998 
      2 C         -77.5028   29.0201  -75.7565 C.2       0 UNK         0.4909 
      3 O         -78.4751   29.5708  -76.2727 O.2       0 UNK        -0.5240 
      4 N         -77.6018   28.1750  -74.7214 N.am      1 UNK        -0.4739 
      5 CA        -78.8481   27.7116  -74.1003 C.3       1 UNK         0.0864 
      6 C6        -79.6495   28.8431  -73.3936 C.3       11 UNK        -0.0881 
      7 S7        -80.7988   28.1759  -72.1352 S.3       11 UNK        -0.2682 
      8 C8        -79.9385   28.5278  -70.5670 C.3       11 UNK         0.0289 
      9 C9        -78.5377   27.9307  -70.5073 C.ar      11 UNK        -0.0687 
     10 C10       -78.3480   26.5446  -70.5530 C.ar      11 UNK        -0.0823 
     11 C11       -77.0583   26.0027  -70.5114 C.ar      11 UNK        -0.0830 
     12 C12       -75.9586   26.8574  -70.3904 C.ar      11 UNK        -0.1021 
     13 C13       -76.1373   28.2415  -70.3183 C.ar      11 UNK        -0.0753 
     14 C14       -77.4279   28.7723  -70.3863 C.ar      11 UNK        -0.0933 
     15 C15       -74.9348   29.1578  -70.1423 C.3       11 UNK         0.0166 
     16 S16       -73.9526   29.2809  -71.6659 S.3       11 UNK        -0.2615 
     17 C17       -75.0649   30.2502  -72.7444 C.3       11 UNK        -0.0865 
     18 CA        -74.3957   31.5080  -73.3562 C.3       10 UNK         0.0862 
     19 C         -74.2175   32.6515  -72.3141 C.2       10 UNK         0.5551 
     20 N         -73.0100   33.1434  -72.0645 N.am      10 UNK        -0.7319 
     21 O         -75.1982   33.1084  -71.7322 O.2       10 UNK        -0.5018 
     22 N         -73.1822   31.1415  -74.1009 N.am      10 UNK        -0.4509 
     23 C         -72.6492   31.8246  -75.1209 C.2       10 UNK         0.4899 
     24 O         -73.1282   32.8639  -75.5747 O.2       10 UNK        -0.4839 
     25 CA        -71.3569   31.2572  -75.7423 C.3       9 UNK         0.0222 
     26 CB        -70.1347   32.0499  -75.2497 C.3       9 UNK        -0.1966 
     27 N         -71.1465   29.8289  -75.4710 N.am      9 UNK        -0.4218 
     28 C         -71.8810   28.8398  -75.9980 C.2       9 UNK         0.5020 
     29 O         -72.7994   29.0236  -76.7994 O.2       9 UNK        -0.5274 
     30 CA        -71.5583   27.4210  -75.5007 C.3       8 UNK         0.0270 
     31 CB        -72.1580   27.1908  -74.1031 C.3       8 UNK        -0.1976 
     32 N         -72.0898   26.4087  -76.4135 N.am      8 UNK        -0.4313 
     33 C         -71.4771   26.0038  -77.5355 C.2       8 UNK         0.5041 
     34 O         -70.3569   26.3893  -77.8755 O.2       8 UNK        -0.5577 
     35 CA        -72.2135   24.9856  -78.4291 C.3       7 UNK         0.0284 
     36 CB        -71.6627   23.5690  -78.1954 C.3       7 UNK        -0.1958 
     37 N         -73.6625   24.9739  -78.2222 N.am      7 UNK        -0.4454 
     38 C         -74.4997   25.9396  -78.6227 C.2       7 UNK         0.5089 
     39 O         -74.1579   26.8892  -79.3274 O.2       7 UNK        -0.5125 
     40 CA        -75.9670   25.8385  -78.1621 C.3       6 UNK         0.0408 
     41 CB        -76.8796   25.4662  -79.3415 C.3       6 UNK        -0.1791 
     42 N         -76.2245   24.9090  -77.0549 N.am      6 UNK        -0.4762 
     43 C         -75.7221   24.9808  -75.8117 C.2       6 UNK         0.5007 
     44 O         -74.8583   25.7949  -75.4851 O.2       6 UNK        -0.5032 
     45 CA        -76.2872   23.9998  -74.7590 C.3       5 UNK         0.0783 
     46 C46       -76.4196   24.6934  -73.3740 C.3       11 UNK        -0.0857 
     47 S47       -77.3986   23.7628  -72.1462 S.3       11 UNK        -0.2512 
     48 C48       -76.8451   24.4948  -70.5724 C.3       11 UNK         0.0225 
     49 N         -77.5486   23.4143  -75.2401 N.am      5 UNK        -0.4615 
     50 C         -77.7044   22.1358  -75.6110 C.2       4 UNK         0.5053 
     51 O         -76.7952   21.3049  -75.5772 O.2       4 UNK        -0.5105 
     52 CA        -79.0921   21.7251  -76.1464 C.3       4 UNK         0.0263 
     53 CB        -79.3013   20.1953  -76.1695 C.3       4 UNK        -0.1981 
     54 N         -80.2068   22.3944  -75.4670 N.am      4 UNK        -0.4224 
     55 C         -80.5519   22.3232  -74.1730 C.2       3 UNK         0.4895 
     56 O         -79.9722   21.6129  -73.3507 O.2       3 UNK        -0.5091 
     57 CA        -81.7525   23.1906  -73.7241 C.3       3 UNK         0.0250 
     58 CB        -81.8204   23.3443  -72.1923 C.3       3 UNK        -0.1996 
     59 N         -81.7640   24.5305  -74.3229 N.am      3 UNK        -0.4254 
     60 C         -82.0720   24.8360  -75.5916 C.2       2 UNK         0.5004 
     61 O         -82.4269   24.0000  -76.4227 O.2       2 UNK        -0.5226 
     62 CA        -81.9046   26.3028  -76.0263 C.3       2 UNK         0.0269 
     63 CB        -83.2646   27.0185  -76.0379 C.3       2 UNK        -0.1926 
     64 N         -80.9691   27.0637  -75.1922 N.am      2 UNK        -0.4687 
     65 C         -79.6540   26.8275  -75.0812 C.2       1 UNK         0.5165 
     66 O         -79.0783   25.9176  -75.6838 O.2       1 UNK        -0.5079 
     67 H67       -76.0984   29.2267  -77.3824 H         1 UNK         0.0900 
     68 H68       -75.7837   30.2987  -76.0202 H         1 UNK         0.0900 
     69 H69       -75.3751   28.5834  -75.9119 H         1 UNK         0.0900 
     70 H70       -76.7621   27.7326  -74.3759 H         1 UNK         0.2959 
     71 H71       -78.5355   27.0299  -73.3126 H         1 UNK         0.1079 
     72 H72       -78.9612   29.5318  -72.9013 H         1 UNK         0.0837 
     73 H73       -80.2013   29.4531  -74.1109 H         1 UNK         0.0837 
     74 H74       -79.9081   29.6087  -70.4205 H         1 UNK         0.0685 
     75 H75       -80.5305   28.1253  -69.7440 H         1 UNK         0.0685 
     76 H76       -79.2034   25.8882  -70.6390 H         1 UNK         0.1434 
     77 H77       -74.9579   26.4493  -70.3455 H         1 UNK         0.1329 
     78 H78       -77.5690   29.8432  -70.3336 H         1 UNK         0.1335 
     79 H79       -74.2998   28.7667  -69.3461 H         1 UNK         0.0680 
     80 H80       -75.2419   30.1559  -69.8252 H         1 UNK         0.0680 
     81 H81       -75.3889   29.5868  -73.5437 H         1 UNK         0.1032 
     82 H82       -75.9768   30.5235  -72.2112 H         1 UNK         0.1032 
     83 H83       -75.1032   31.9066  -74.0859 H         1 UNK         0.0461 
     84 H84       -72.9074   33.8870  -71.3920 H         1 UNK         0.3453 
     85 H85       -72.2026   32.7738  -72.5386 H         1 UNK         0.3453 
     86 H86       -72.7111   30.3114  -73.7742 H         1 UNK         0.2984 
     87 H87       -71.4326   31.3878  -76.8239 H         1 UNK         0.0554 
     88 H88       -70.2490   33.1145  -75.4598 H         1 UNK         0.0847 
     89 H89       -69.2216   31.7221  -75.7470 H         1 UNK         0.0847 
     90 H90       -69.9886   31.9448  -74.1739 H         1 UNK         0.0847 
     91 H91       -70.4090   29.5941  -74.8214 H         1 UNK         0.3141 
     92 H92       -70.4737   27.3089  -75.4371 H         1 UNK         0.0743 
     93 H93       -71.7018   27.8505  -73.3644 H         1 UNK         0.0784 
     94 H94       -73.2323   27.3796  -74.0876 H         1 UNK         0.0784 
     95 H95       -71.9953   26.1680  -73.7631 H         1 UNK         0.0784 
     96 H96       -73.0415   26.1041  -76.2309 H         1 UNK         0.3213 
     97 H97       -72.0180   25.2618  -79.4677 H         1 UNK         0.0855 
     98 H98       -71.8337   23.2321  -77.1721 H         1 UNK         0.0814 
     99 H99       -70.5869   23.5354  -78.3732 H         1 UNK         0.0814 
    100 H100      -72.1229   22.8468  -78.8700 H         1 UNK         0.0814 
    101 H101      -74.0417   24.2267  -77.6596 H         1 UNK         0.3105 
    102 H102      -76.2571   26.8311  -77.8164 H         1 UNK         0.0547 
    103 H103      -77.9314   25.5044  -79.0568 H         1 UNK         0.0837 
    104 H104      -76.7480   26.1597  -80.1733 H         1 UNK         0.0837 
    105 H105      -76.6664   24.4644  -79.7160 H         1 UNK         0.0837 
    106 H106      -76.9333   24.2098  -77.2204 H         1 UNK         0.3020 
    107 H107      -75.5348   23.2158  -74.6509 H         1 UNK         0.1245 
    108 H108      -76.8741   25.6738  -73.4779 H         1 UNK         0.0781 
    109 H109      -75.4264   24.8743  -72.9580 H         1 UNK         0.0781 
    110 H110      -75.7948   24.2425  -70.4182 H         1 UNK         0.0836 
    111 H111      -77.3935   24.0253  -69.7547 H         1 UNK         0.0836 
    112 H112      -78.3247   24.0638  -75.3236 H         1 UNK         0.3022 
    113 H113      -79.1238   22.0713  -77.1804 H         1 UNK         0.0747 
    114 H114      -80.2812   19.9346  -76.5693 H         1 UNK         0.0793 
    115 H115      -78.5566   19.7071  -76.7994 H         1 UNK         0.0793 
    116 H116      -79.2184   19.7601  -75.1732 H         1 UNK         0.0793 
    117 H117      -80.7933   22.9811  -76.0534 H         1 UNK         0.3047 
    118 H118      -82.6544   22.6670  -74.0478 H         1 UNK         0.0822 
    119 H119      -81.9072   22.3734  -71.7027 H         1 UNK         0.0807 
    120 H120      -82.6858   23.9336  -71.8884 H         1 UNK         0.0807 
    121 H121      -80.9264   23.8299  -71.7979 H         1 UNK         0.0807 
    122 H122      -81.4634   25.2868  -73.7255 H         1 UNK         0.2946 
    123 H123      -81.5093   26.2920  -77.0447 H         1 UNK         0.1144 
    124 H124      -83.1764   28.0322  -76.4293 H         1 UNK         0.0793 
    125 H125      -83.6976   27.0797  -75.0386 H         1 UNK         0.0793 
    126 H126      -83.9789   26.4902  -76.6713 H         1 UNK         0.0793 
    127 H127      -81.3634   27.8072  -74.6319 H         1 UNK         0.2896 
@<TRIPOS>BOND
     1    1    2 1    
     2    1   67 1    
     3    1   68 1    
     4    1   69 1    
     5    2    3 2    
     6    2    4 am   BACKBONE|DICT|INTERRES
     7    4    5 1    
     8    4   70 1    
     9    5    6 1    
    10    5   65 1    
    11    5   71 1    
    12    6    7 1    
    13    6   72 1    
    14    6   73 1    
    15    7    8 1    
    16    8    9 1    
    17    8   74 1    
    18    8   75 1    
    19    9   10 ar   
    20    9   14 ar   
    21   10   11 ar   
    22   10   76 1    
    23   11   12 ar   
    24   11   48 1    
    25   12   13 ar   
    26   12   77 1    
    27   13   14 ar   
    28   13   15 1    
    29   14   78 1    
    30   15   16 1    
    31   15   79 1    
    32   15   80 1    
    33   16   17 1    
    34   17   18 1    
    35   17   81 1    
    36   17   82 1    
    37   18   19 1    
    38   18   22 1    
    39   18   83 1    
    40   19   20 am   BACKBONE|DICT|INTERRES
    41   19   21 2    
    42   20   84 1    
    43   20   85 1    
    44   22   23 am   BACKBONE|DICT|INTERRES
    45   22   86 1    
    46   23   24 2    
    47   23   25 1    
    48   25   26 1    
    49   25   27 1    
    50   25   87 1    
    51   26   88 1    
    52   26   89 1    
    53   26   90 1    
    54   27   28 am   BACKBONE|DICT|INTERRES
    55   27   91 1    
    56   28   29 2    
    57   28   30 1    
    58   30   31 1    
    59   30   32 1    
    60   30   92 1    
    61   31   93 1    
    62   31   94 1    
    63   31   95 1    
    64   32   33 am   BACKBONE|DICT|INTERRES
    65   32   96 1    
    66   33   34 2    
    67   33   35 1    
    68   35   36 1    
    69   35   37 1    
    70   35   97 1    
    71   36   98 1    
    72   36   99 1    
    73   36  100 1    
    74   37   38 am   BACKBONE|DICT|INTERRES
    75   37  101 1    
    76   38   39 2    
    77   38   40 1    
    78   40   41 1    
    79   40   42 1    
    80   40  102 1    
    81   41  103 1    
    82   41  104 1    
    83   41  105 1    
    84   42   43 am   BACKBONE|DICT|INTERRES
    85   42  106 1    
    86   43   44 2    
    87   43   45 1    
    88   45   46 1    
    89   45   49 1    
    90   45  107 1    
    91   46   47 1    
    92   46  108 1    
    93   46  109 1    
    94   47   48 1    
    95   48  110 1    
    96   48  111 1    
    97   49   50 am   BACKBONE|DICT|INTERRES
    98   49  112 1    
    99   50   51 2    
   100   50   52 1    
   101   52   53 1    
   102   52   54 1    
   103   52  113 1    
   104   53  114 1    
   105   53  115 1    
   106   53  116 1    
   107   54   55 am   BACKBONE|DICT|INTERRES
   108   54  117 1    
   109   55   56 2    
   110   55   57 1    
   111   57   58 1    
   112   57   59 1    
   113   57  118 1    
   114   58  119 1    
   115   58  120 1    
   116   58  121 1    
   117   59   60 am   BACKBONE|DICT|INTERRES
   118   59  122 1    
   119   60   61 2    
   120   60   62 1    
   121   62   63 1    
   122   62   64 1    
   123   62  123 1    
   124   63  124 1    
   125   63  125 1    
   126   63  126 1    
   127   64   65 am   BACKBONE|DICT|INTERRES
   128   64  127 1    
   129   65   66 2    
@<TRIPOS>SUBSTRUCTURE
     1 UNK         1 GROUP             0       ****    0 ROOT    
