@<TRIPOS>MOLECULE
3R135
127   129    1
SMALL
USER_CHARGES


@<TRIPOS>ATOM
      1 CA        -80.7813   30.8143  -75.2877 C.3       0 UNK        -0.1998 
      2 C         -80.6711   29.4794  -74.5674 C.2       0 UNK         0.4909 
      3 O         -80.1028   28.5338  -75.1152 O.2       0 UNK        -0.5240 
      4 N         -81.2026   29.3961  -73.3404 N.am      1 UNK        -0.4739 
      5 CA        -81.1811   28.1857  -72.5123 C.3       1 UNK         0.0864 
      6 C6        -81.5561   28.4541  -71.0303 C.3       11 UNK        -0.0881 
      7 S7        -80.6457   29.8475  -70.2731 S.3       11 UNK        -0.2682 
      8 C8        -79.1061   29.0555  -69.6969 C.3       11 UNK         0.0289 
      9 C9        -78.2567   28.5482  -70.8543 C.ar      11 UNK        -0.0687 
     10 C10       -77.9580   27.1865  -70.9685 C.ar      11 UNK        -0.0823 
     11 C11       -77.2304   26.7107  -72.0638 C.ar      11 UNK        -0.0830 
     12 C12       -76.8009   27.6048  -73.0479 C.ar      11 UNK        -0.1021 
     13 C13       -77.0776   28.9695  -72.9352 C.ar      11 UNK        -0.0753 
     14 C14       -77.7971   29.4368  -71.8324 C.ar      11 UNK        -0.0933 
     15 C15       -76.6153   29.9364  -74.0122 C.3       11 UNK         0.0166 
     16 S16       -75.0709   30.7589  -73.5245 S.3       11 UNK        -0.2615 
     17 C17       -74.6666   31.6739  -75.0532 C.3       11 UNK        -0.0865 
     18 CA        -73.5768   30.9625  -75.9086 C.3       10 UNK         0.0862 
     19 C         -73.3232   31.6652  -77.2769 C.2       10 UNK         0.5551 
     20 N         -72.1093   31.6423  -77.8152 N.am      10 UNK        -0.7319 
     21 O         -74.2442   32.2143  -77.8771 O.2       10 UNK        -0.5018 
     22 N         -72.3555   30.6465  -75.1476 N.am      10 UNK        -0.4509 
     23 C         -71.5288   31.5291  -74.5658 C.2       10 UNK         0.4899 
     24 O         -71.6811   32.7499  -74.6178 O.2       10 UNK        -0.4839 
     25 CA        -70.3274   30.9708  -73.7775 C.3       9 UNK         0.0222 
     26 CB        -70.5771   31.1037  -72.2658 C.3       9 UNK        -0.1966 
     27 N         -70.0181   29.5728  -74.0852 N.am      9 UNK        -0.4218 
     28 C         -69.5008   29.1326  -75.2405 C.2       9 UNK         0.5020 
     29 O         -69.1430   29.8719  -76.1585 O.2       9 UNK        -0.5274 
     30 CA        -69.4019   27.6056  -75.4144 C.3       8 UNK         0.0270 
     31 CB        -68.0048   27.1073  -75.0101 C.3       8 UNK        -0.1976 
     32 N         -70.4233   26.8514  -74.6734 N.am      8 UNK        -0.4313 
     33 C         -71.7441   26.9463  -74.8804 C.2       8 UNK         0.5041 
     34 O         -72.2586   27.7252  -75.6862 O.2       8 UNK        -0.5577 
     35 CA        -72.6504   26.0632  -74.0076 C.3       7 UNK         0.0284 
     36 CB        -73.2881   26.9075  -72.8914 C.3       7 UNK        -0.1958 
     37 N         -73.6973   25.4266  -74.8132 N.am      7 UNK        -0.4454 
     38 C         -73.4588   24.4847  -75.7359 C.2       7 UNK         0.5089 
     39 O         -72.3466   23.9870  -75.9282 O.2       7 UNK        -0.5125 
     40 CA        -74.6680   24.0249  -76.5763 C.3       6 UNK         0.0408 
     41 CB        -74.2813   22.9861  -77.6494 C.3       6 UNK        -0.1791 
     42 N         -75.8001   23.5162  -75.7915 N.am      6 UNK        -0.4762 
     43 C         -75.7839   22.5607  -74.8442 C.2       6 UNK         0.5007 
     44 O         -74.7579   22.0664  -74.3762 O.2       6 UNK        -0.5032 
     45 CA        -77.1517   22.0185  -74.3679 C.3       5 UNK         0.0783 
     46 C46       -77.6092   22.6505  -73.0302 C.3       11 UNK        -0.0857 
     47 S47       -78.1817   24.3812  -73.1731 S.3       11 UNK        -0.2512 
     48 C48       -76.9156   25.2303  -72.1884 C.3       11 UNK         0.0225 
     49 N         -78.1919   22.1156  -75.3947 N.am      5 UNK        -0.4615 
     50 C         -78.2085   21.4434  -76.5534 C.2       4 UNK         0.5053 
     51 O         -77.3966   20.5650  -76.8445 O.2       4 UNK        -0.5105 
     52 CA        -79.3060   21.8189  -77.5669 C.3       4 UNK         0.0263 
     53 CB        -80.3989   20.7385  -77.5996 C.3       4 UNK        -0.1981 
     54 N         -79.9342   23.1199  -77.3143 N.am      4 UNK        -0.4224 
     55 C         -79.3336   24.3153  -77.3743 C.2       3 UNK         0.4895 
     56 O         -78.1444   24.4694  -77.6533 O.2       3 UNK        -0.5091 
     57 CA        -80.1899   25.5407  -77.0136 C.3       3 UNK         0.0250 
     58 CB        -81.2047   25.8722  -78.1250 C.3       3 UNK        -0.1996 
     59 N         -80.8341   25.4490  -75.6953 N.am      3 UNK        -0.4254 
     60 C         -81.7915   24.6082  -75.2674 C.2       2 UNK         0.5004 
     61 O         -82.3101   23.7458  -75.9781 O.2       2 UNK        -0.5226 
     62 CA        -82.2280   24.7135  -73.7925 C.3       2 UNK         0.0269 
     63 CB        -81.9129   23.4119  -73.0350 C.3       2 UNK        -0.1926 
     64 N         -81.5972   25.8408  -73.0971 N.am      2 UNK        -0.4687 
     65 C         -82.0770   27.0911  -73.1221 C.2       1 UNK         0.5165 
     66 O         -83.1691   27.3948  -73.6096 O.2       1 UNK        -0.5079 
     67 H67       -81.2885   31.5642  -74.6809 H         1 UNK         0.0900 
     68 H68       -79.7882   31.1902  -75.5321 H         1 UNK         0.0900 
     69 H69       -81.3388   30.6935  -76.2161 H         1 UNK         0.0900 
     70 H70       -81.6653   30.1957  -72.9331 H         1 UNK         0.2959 
     71 H71       -80.1589   27.8099  -72.5458 H         1 UNK         0.1079 
     72 H72       -81.3932   27.5585  -70.4277 H         1 UNK         0.0837 
     73 H73       -82.6206   28.6822  -70.9471 H         1 UNK         0.0837 
     74 H74       -79.3547   28.2488  -69.0056 H         1 UNK         0.0685 
     75 H75       -78.5272   29.7833  -69.1269 H         1 UNK         0.0685 
     76 H76       -78.3069   26.4928  -70.2155 H         1 UNK         0.1434 
     77 H77       -76.2540   27.2390  -73.9049 H         1 UNK         0.1329 
     78 H78       -78.0246   30.4907  -71.7487 H         1 UNK         0.1335 
     79 H79       -76.4646   29.4084  -74.9553 H         1 UNK         0.0680 
     80 H80       -77.3873   30.6856  -74.1948 H         1 UNK         0.0680 
     81 H81       -74.3394   32.6771  -74.7766 H         1 UNK         0.1032 
     82 H82       -75.5804   31.8133  -75.6337 H         1 UNK         0.1032 
     83 H83       -73.9855   29.9898  -76.1847 H         1 UNK         0.0461 
     84 H84       -71.9522   32.0888  -78.7048 H         1 UNK         0.3453 
     85 H85       -71.3494   31.1844  -77.3352 H         1 UNK         0.3453 
     86 H86       -72.1369   29.6567  -75.1044 H         1 UNK         0.2984 
     87 H87       -69.4559   31.5762  -74.0355 H         1 UNK         0.0554 
     88 H88       -70.7691   32.1422  -71.9920 H         1 UNK         0.0847 
     89 H89       -69.7138   30.7738  -71.6877 H         1 UNK         0.0847 
     90 H90       -71.4418   30.5199  -71.9466 H         1 UNK         0.0847 
     91 H91       -70.2762   28.8867  -73.3914 H         1 UNK         0.3141 
     92 H92       -69.5458   27.3931  -76.4760 H         1 UNK         0.0743 
     93 H93       -67.8101   27.2642  -73.9483 H         1 UNK         0.0784 
     94 H94       -67.8849   26.0445  -75.2216 H         1 UNK         0.0784 
     95 H95       -67.2271   27.6345  -75.5650 H         1 UNK         0.0784 
     96 H96       -70.0853   26.1876  -73.9904 H         1 UNK         0.3213 
     97 H97       -72.0512   25.2745  -73.5470 H         1 UNK         0.0855 
     98 H98       -73.8895   27.7238  -73.2938 H         1 UNK         0.0814 
     99 H99       -72.5228   27.3572  -72.2576 H         1 UNK         0.0814 
    100 H100      -73.9228   26.3045  -72.2431 H         1 UNK         0.0814 
    101 H101      -74.6291   25.8043  -74.7432 H         1 UNK         0.3105 
    102 H102      -75.0324   24.9113  -77.0978 H         1 UNK         0.0547 
    103 H103      -75.1345   22.7312  -78.2783 H         1 UNK         0.0837 
    104 H104      -73.9086   22.0639  -77.2021 H         1 UNK         0.0837 
    105 H105      -73.4994   23.3710  -78.3054 H         1 UNK         0.0837 
    106 H106      -76.7077   23.8424  -76.1042 H         1 UNK         0.3020 
    107 H107      -76.9951   20.9531  -74.1821 H         1 UNK         0.1245 
    108 H108      -76.8184   22.5727  -72.2815 H         1 UNK         0.0781 
    109 H109      -78.4399   22.0690  -72.6274 H         1 UNK         0.0781 
    110 H110      -75.9405   25.0857  -72.6546 H         1 UNK         0.0836 
    111 H111      -76.8557   24.7763  -71.1979 H         1 UNK         0.0836 
    112 H112      -78.9002   22.8165  -75.2367 H         1 UNK         0.3022 
    113 H113      -78.8341   21.8640  -78.5505 H         1 UNK         0.0747 
    114 H114      -81.1374   20.9447  -78.3746 H         1 UNK         0.0793 
    115 H115      -79.9739   19.7564  -77.8123 H         1 UNK         0.0793 
    116 H116      -80.9240   20.6684  -76.6459 H         1 UNK         0.0793 
    117 H117      -80.9074   23.1140  -77.0143 H         1 UNK         0.3047 
    118 H118      -79.5045   26.3871  -76.9411 H         1 UNK         0.0822 
    119 H119      -81.7474   26.7903  -77.8996 H         1 UNK         0.0807 
    120 H120      -81.9369   25.0772  -78.2678 H         1 UNK         0.0807 
    121 H121      -80.6990   26.0213  -79.0799 H         1 UNK         0.0807 
    122 H122      -80.4885   26.1237  -75.0253 H         1 UNK         0.2946 
    123 H123      -83.3126   24.8464  -73.7917 H         1 UNK         0.1144 
    124 H124      -82.2395   23.4683  -71.9965 H         1 UNK         0.0793 
    125 H125      -80.8480   23.1826  -73.0397 H         1 UNK         0.0793 
    126 H126      -82.4274   22.5630  -73.4875 H         1 UNK         0.0793 
    127 H127      -80.6975   25.6597  -72.6721 H         1 UNK         0.2896 
@<TRIPOS>BOND
     1    1    2 1    
     2    1   67 1    
     3    1   68 1    
     4    1   69 1    
     5    2    3 2    
     6    2    4 am   BACKBONE|DICT|INTERRES
     7    4    5 1    
     8    4   70 1    
     9    5    6 1    
    10    5   65 1    
    11    5   71 1    
    12    6    7 1    
    13    6   72 1    
    14    6   73 1    
    15    7    8 1    
    16    8    9 1    
    17    8   74 1    
    18    8   75 1    
    19    9   10 ar   
    20    9   14 ar   
    21   10   11 ar   
    22   10   76 1    
    23   11   12 ar   
    24   11   48 1    
    25   12   13 ar   
    26   12   77 1    
    27   13   14 ar   
    28   13   15 1    
    29   14   78 1    
    30   15   16 1    
    31   15   79 1    
    32   15   80 1    
    33   16   17 1    
    34   17   18 1    
    35   17   81 1    
    36   17   82 1    
    37   18   19 1    
    38   18   22 1    
    39   18   83 1    
    40   19   20 am   BACKBONE|DICT|INTERRES
    41   19   21 2    
    42   20   84 1    
    43   20   85 1    
    44   22   23 am   BACKBONE|DICT|INTERRES
    45   22   86 1    
    46   23   24 2    
    47   23   25 1    
    48   25   26 1    
    49   25   27 1    
    50   25   87 1    
    51   26   88 1    
    52   26   89 1    
    53   26   90 1    
    54   27   28 am   BACKBONE|DICT|INTERRES
    55   27   91 1    
    56   28   29 2    
    57   28   30 1    
    58   30   31 1    
    59   30   32 1    
    60   30   92 1    
    61   31   93 1    
    62   31   94 1    
    63   31   95 1    
    64   32   33 am   BACKBONE|DICT|INTERRES
    65   32   96 1    
    66   33   34 2    
    67   33   35 1    
    68   35   36 1    
    69   35   37 1    
    70   35   97 1    
    71   36   98 1    
    72   36   99 1    
    73   36  100 1    
    74   37   38 am   BACKBONE|DICT|INTERRES
    75   37  101 1    
    76   38   39 2    
    77   38   40 1    
    78   40   41 1    
    79   40   42 1    
    80   40  102 1    
    81   41  103 1    
    82   41  104 1    
    83   41  105 1    
    84   42   43 am   BACKBONE|DICT|INTERRES
    85   42  106 1    
    86   43   44 2    
    87   43   45 1    
    88   45   46 1    
    89   45   49 1    
    90   45  107 1    
    91   46   47 1    
    92   46  108 1    
    93   46  109 1    
    94   47   48 1    
    95   48  110 1    
    96   48  111 1    
    97   49   50 am   BACKBONE|DICT|INTERRES
    98   49  112 1    
    99   50   51 2    
   100   50   52 1    
   101   52   53 1    
   102   52   54 1    
   103   52  113 1    
   104   53  114 1    
   105   53  115 1    
   106   53  116 1    
   107   54   55 am   BACKBONE|DICT|INTERRES
   108   54  117 1    
   109   55   56 2    
   110   55   57 1    
   111   57   58 1    
   112   57   59 1    
   113   57  118 1    
   114   58  119 1    
   115   58  120 1    
   116   58  121 1    
   117   59   60 am   BACKBONE|DICT|INTERRES
   118   59  122 1    
   119   60   61 2    
   120   60   62 1    
   121   62   63 1    
   122   62   64 1    
   123   62  123 1    
   124   63  124 1    
   125   63  125 1    
   126   63  126 1    
   127   64   65 am   BACKBONE|DICT|INTERRES
   128   64  127 1    
   129   65   66 2    
@<TRIPOS>SUBSTRUCTURE
     1 UNK         1 GROUP             0       ****    0 ROOT    
