@<TRIPOS>MOLECULE
3R135
127   129    1
SMALL
USER_CHARGES


@<TRIPOS>ATOM
      1 CA        -79.4193   29.3611  -74.6787 C.3       0 UNK        -0.1998 
      2 C         -79.5958   27.8523  -74.6076 C.2       0 UNK         0.4909 
      3 O         -80.2073   27.2694  -75.5025 O.2       0 UNK        -0.5240 
      4 N         -79.0741   27.2212  -73.5466 N.am      1 UNK        -0.4739 
      5 CA        -79.2462   25.7959  -73.2467 C.3       1 UNK         0.0864 
      6 C6        -78.3562   25.3398  -72.0635 C.3       11 UNK        -0.0881 
      7 S7        -76.6425   25.0148  -72.5882 S.3       11 UNK        -0.2682 
      8 C8        -75.7213   26.3813  -71.8160 C.3       11 UNK         0.0289 
      9 C9        -75.8971   27.6956  -72.5620 C.ar      11 UNK        -0.0687 
     10 C10       -75.5893   27.7750  -73.9232 C.ar      11 UNK        -0.0823 
     11 C11       -75.7150   28.9801  -74.6163 C.ar      11 UNK        -0.0830 
     12 C12       -76.1329   30.1224  -73.9283 C.ar      11 UNK        -0.1021 
     13 C13       -76.4128   30.0668  -72.5596 C.ar      11 UNK        -0.0753 
     14 C14       -76.3078   28.8469  -71.8841 C.ar      11 UNK        -0.0933 
     15 C15       -76.8276   31.3221  -71.8070 C.3       11 UNK         0.0166 
     16 S16       -75.4130   32.1112  -70.9711 S.3       11 UNK        -0.2615 
     17 C17       -74.6065   33.0090  -72.3475 C.3       11 UNK        -0.0865 
     18 CA        -73.0524   33.0560  -72.2711 C.3       10 UNK         0.0862 
     19 C         -72.5213   33.9407  -71.1116 C.2       10 UNK         0.5551 
     20 N         -72.7886   35.2392  -71.1480 N.am      10 UNK        -0.7319 
     21 O         -71.8671   33.4668  -70.1827 O.2       10 UNK        -0.5018 
     22 N         -72.4327   31.7268  -72.2435 N.am      10 UNK        -0.4509 
     23 C         -72.3519   30.8750  -73.2685 C.2       10 UNK         0.4899 
     24 O         -72.8184   31.1027  -74.3877 O.2       10 UNK        -0.4839 
     25 CA        -71.6153   29.5536  -72.9779 C.3       9 UNK         0.0222 
     26 CB        -72.3430   28.7299  -71.9025 C.3       9 UNK        -0.1966 
     27 N         -71.4870   28.7346  -74.1826 N.am      9 UNK        -0.4218 
     28 C         -70.5277   28.8499  -75.1062 C.2       9 UNK         0.5020 
     29 O         -69.5655   29.6137  -74.9984 O.2       9 UNK        -0.5274 
     30 CA        -70.6642   27.9447  -76.3509 C.3       8 UNK         0.0270 
     31 CB        -69.5197   28.1495  -77.3621 C.3       8 UNK        -0.1976 
     32 N         -70.7528   26.5169  -76.0186 N.am      8 UNK        -0.4313 
     33 C         -71.8326   25.9083  -75.5154 C.2       8 UNK         0.5041 
     34 O         -72.8772   26.5013  -75.2317 O.2       8 UNK        -0.5577 
     35 CA        -71.7332   24.4011  -75.2594 C.3       7 UNK         0.0284 
     36 CB        -70.9611   24.1097  -73.9598 C.3       7 UNK        -0.1958 
     37 N         -73.0950   23.8917  -75.1529 N.am      7 UNK        -0.4454 
     38 C         -73.5063   22.6395  -75.3758 C.2       7 UNK         0.5089 
     39 O         -72.7506   21.7119  -75.6674 O.2       7 UNK        -0.5125 
     40 CA        -75.0190   22.3740  -75.2544 C.3       6 UNK         0.0408 
     41 CB        -75.3455   21.7759  -73.8767 C.3       6 UNK        -0.1791 
     42 N         -75.8226   23.5848  -75.4598 N.am      6 UNK        -0.4762 
     43 C         -76.1291   24.0868  -76.6640 C.2       6 UNK         0.5007 
     44 O         -75.8256   23.5428  -77.7283 O.2       6 UNK        -0.5032 
     45 CA        -76.8616   25.4446  -76.6960 C.3       5 UNK         0.0783 
     46 C46       -75.9114   26.5304  -77.2605 C.3       11 UNK        -0.0857 
     47 S47       -76.5926   28.2195  -77.1477 S.3       11 UNK        -0.2512 
     48 C48       -75.3634   29.0622  -76.0951 C.3       11 UNK         0.0225 
     49 N         -78.0975   25.3579  -77.4787 N.am      5 UNK        -0.4615 
     50 C         -79.1511   24.5822  -77.1986 C.2       4 UNK         0.5053 
     51 O         -79.2322   23.8452  -76.2099 O.2       4 UNK        -0.5105 
     52 CA        -80.3089   24.6329  -78.2037 C.3       4 UNK         0.0263 
     53 CB        -79.9553   23.8794  -79.5005 C.3       4 UNK        -0.1981 
     54 N         -81.4792   24.0305  -77.5775 N.am      4 UNK        -0.4224 
     55 C         -82.7582   24.2133  -77.9245 C.2       3 UNK         0.4895 
     56 O         -83.1192   24.8935  -78.8857 O.2       3 UNK        -0.5091 
     57 CA        -83.8207   23.5181  -77.0506 C.3       3 UNK         0.0250 
     58 CB        -84.2601   22.1918  -77.6924 C.3       3 UNK        -0.1996 
     59 N         -83.3521   23.2615  -75.6842 N.am      3 UNK        -0.4254 
     60 C         -83.2090   24.2071  -74.7447 C.2       2 UNK         0.5004 
     61 O         -83.5654   25.3760  -74.8968 O.2       2 UNK        -0.5226 
     62 CA        -82.5245   23.7949  -73.4309 C.3       2 UNK         0.0269 
     63 CB        -82.5248   22.2740  -73.1704 C.3       2 UNK        -0.1926 
     64 N         -81.1430   24.2722  -73.4655 N.am      2 UNK        -0.4687 
     65 C         -80.7255   25.4485  -72.9814 C.2       1 UNK         0.5165 
     66 O         -81.4321   26.2183  -72.3246 O.2       1 UNK        -0.5079 
     67 H67       -79.0681   29.7720  -73.7329 H         1 UNK         0.0900 
     68 H68       -80.3681   29.8395  -74.9194 H         1 UNK         0.0900 
     69 H69       -78.7007   29.6201  -75.4551 H         1 UNK         0.0900 
     70 H70       -78.5568   27.7525  -72.8614 H         1 UNK         0.2959 
     71 H71       -78.9437   25.2476  -74.1376 H         1 UNK         0.1079 
     72 H72       -78.7198   24.4027  -71.6360 H         1 UNK         0.0837 
     73 H73       -78.3818   26.0652  -71.2484 H         1 UNK         0.0837 
     74 H74       -76.0157   26.4742  -70.7696 H         1 UNK         0.0685 
     75 H75       -74.6606   26.1263  -71.8147 H         1 UNK         0.0685 
     76 H76       -75.2460   26.8929  -74.4407 H         1 UNK         0.1434 
     77 H77       -76.2242   31.0604  -74.4575 H         1 UNK         0.1329 
     78 H78       -76.5210   28.8034  -70.8247 H         1 UNK         0.1335 
     79 H79       -77.3054   32.0370  -72.4788 H         1 UNK         0.0680 
     80 H80       -77.5770   31.0643  -71.0572 H         1 UNK         0.0680 
     81 H81       -75.0200   34.0179  -72.3858 H         1 UNK         0.1032 
     82 H82       -74.8944   32.5522  -73.2927 H         1 UNK         0.1032 
     83 H83       -72.6934   33.5391  -73.1822 H         1 UNK         0.0461 
     84 H84       -73.3132   35.6454  -71.9069 H         1 UNK         0.3453 
     85 H85       -72.4513   35.8284  -70.4027 H         1 UNK         0.3453 
     86 H86       -72.0069   31.4940  -71.3559 H         1 UNK         0.2984 
     87 H87       -70.6180   29.7980  -72.6064 H         1 UNK         0.0554 
     88 H88       -71.8406   27.7801  -71.7190 H         1 UNK         0.0847 
     89 H89       -73.3668   28.5142  -72.1991 H         1 UNK         0.0847 
     90 H90       -72.3867   29.2602  -70.9508 H         1 UNK         0.0847 
     91 H91       -72.2392   28.0783  -74.3804 H         1 UNK         0.3141 
     92 H92       -71.5927   28.2370  -76.8469 H         1 UNK         0.0743 
     93 H93       -69.4550   29.1929  -77.6738 H         1 UNK         0.0784 
     94 H94       -69.6743   27.5554  -78.2631 H         1 UNK         0.0784 
     95 H95       -68.5526   27.8745  -76.9392 H         1 UNK         0.0784 
     96 H96       -69.9198   25.9687  -76.1804 H         1 UNK         0.3213 
     97 H97       -71.2339   23.9306  -76.1092 H         1 UNK         0.0855 
     98 H98       -69.9391   24.4865  -74.0148 H         1 UNK         0.0814 
     99 H99       -70.8993   23.0388  -73.7658 H         1 UNK         0.0814 
    100 H100      -71.4367   24.5785  -73.0971 H         1 UNK         0.0814 
    101 H101      -73.7773   24.6166  -74.9686 H         1 UNK         0.3105 
    102 H102      -75.2903   21.6366  -76.0130 H         1 UNK         0.0547 
    103 H103      -75.0540   22.4433  -73.0649 H         1 UNK         0.0837 
    104 H104      -74.8156   20.8343  -73.7270 H         1 UNK         0.0837 
    105 H105      -76.4106   21.5674  -73.7751 H         1 UNK         0.0837 
    106 H106      -76.1263   24.0669  -74.6222 H         1 UNK         0.3020 
    107 H107      -77.1384   25.7214  -75.6771 H         1 UNK         0.1245 
    108 H108      -75.6880   26.3315  -78.3106 H         1 UNK         0.0781 
    109 H109      -74.9489   26.4987  -76.7512 H         1 UNK         0.0781 
    110 H110      -75.3079   30.1060  -76.4073 H         1 UNK         0.0836 
    111 H111      -74.3652   28.6551  -76.2616 H         1 UNK         0.0836 
    112 H112      -78.1241   25.9295  -78.3099 H         1 UNK         0.3022 
    113 H113      -80.5249   25.6802  -78.4262 H         1 UNK         0.0747 
    114 H114      -80.7714   23.9219  -80.2219 H         1 UNK         0.0793 
    115 H115      -79.0781   24.3121  -79.9828 H         1 UNK         0.0793 
    116 H116      -79.7358   22.8288  -79.3057 H         1 UNK         0.0793 
    117 H117      -81.2592   23.4931  -76.7486 H         1 UNK         0.3047 
    118 H118      -84.6896   24.1783  -77.0015 H         1 UNK         0.0822 
    119 H119      -85.0584   21.7188  -77.1200 H         1 UNK         0.0807 
    120 H120      -83.4336   21.4839  -77.7670 H         1 UNK         0.0807 
    121 H121      -84.6407   22.3550  -78.7018 H         1 UNK         0.0807 
    122 H122      -83.0557   22.3196  -75.4722 H         1 UNK         0.2946 
    123 H123      -83.0731   24.2761  -72.6175 H         1 UNK         0.1144 
    124 H124      -83.5380   21.8699  -73.1934 H         1 UNK         0.0793 
    125 H125      -82.1185   22.0520  -72.1833 H         1 UNK         0.0793 
    126 H126      -81.9263   21.7245  -73.8980 H         1 UNK         0.0793 
    127 H127      -80.4938   23.7246  -74.0154 H         1 UNK         0.2896 
@<TRIPOS>BOND
     1    1    2 1    
     2    1   67 1    
     3    1   68 1    
     4    1   69 1    
     5    2    3 2    
     6    2    4 am   BACKBONE|DICT|INTERRES
     7    4    5 1    
     8    4   70 1    
     9    5    6 1    
    10    5   65 1    
    11    5   71 1    
    12    6    7 1    
    13    6   72 1    
    14    6   73 1    
    15    7    8 1    
    16    8    9 1    
    17    8   74 1    
    18    8   75 1    
    19    9   10 ar   
    20    9   14 ar   
    21   10   11 ar   
    22   10   76 1    
    23   11   12 ar   
    24   11   48 1    
    25   12   13 ar   
    26   12   77 1    
    27   13   14 ar   
    28   13   15 1    
    29   14   78 1    
    30   15   16 1    
    31   15   79 1    
    32   15   80 1    
    33   16   17 1    
    34   17   18 1    
    35   17   81 1    
    36   17   82 1    
    37   18   19 1    
    38   18   22 1    
    39   18   83 1    
    40   19   20 am   BACKBONE|DICT|INTERRES
    41   19   21 2    
    42   20   84 1    
    43   20   85 1    
    44   22   23 am   BACKBONE|DICT|INTERRES
    45   22   86 1    
    46   23   24 2    
    47   23   25 1    
    48   25   26 1    
    49   25   27 1    
    50   25   87 1    
    51   26   88 1    
    52   26   89 1    
    53   26   90 1    
    54   27   28 am   BACKBONE|DICT|INTERRES
    55   27   91 1    
    56   28   29 2    
    57   28   30 1    
    58   30   31 1    
    59   30   32 1    
    60   30   92 1    
    61   31   93 1    
    62   31   94 1    
    63   31   95 1    
    64   32   33 am   BACKBONE|DICT|INTERRES
    65   32   96 1    
    66   33   34 2    
    67   33   35 1    
    68   35   36 1    
    69   35   37 1    
    70   35   97 1    
    71   36   98 1    
    72   36   99 1    
    73   36  100 1    
    74   37   38 am   BACKBONE|DICT|INTERRES
    75   37  101 1    
    76   38   39 2    
    77   38   40 1    
    78   40   41 1    
    79   40   42 1    
    80   40  102 1    
    81   41  103 1    
    82   41  104 1    
    83   41  105 1    
    84   42   43 am   BACKBONE|DICT|INTERRES
    85   42  106 1    
    86   43   44 2    
    87   43   45 1    
    88   45   46 1    
    89   45   49 1    
    90   45  107 1    
    91   46   47 1    
    92   46  108 1    
    93   46  109 1    
    94   47   48 1    
    95   48  110 1    
    96   48  111 1    
    97   49   50 am   BACKBONE|DICT|INTERRES
    98   49  112 1    
    99   50   51 2    
   100   50   52 1    
   101   52   53 1    
   102   52   54 1    
   103   52  113 1    
   104   53  114 1    
   105   53  115 1    
   106   53  116 1    
   107   54   55 am   BACKBONE|DICT|INTERRES
   108   54  117 1    
   109   55   56 2    
   110   55   57 1    
   111   57   58 1    
   112   57   59 1    
   113   57  118 1    
   114   58  119 1    
   115   58  120 1    
   116   58  121 1    
   117   59   60 am   BACKBONE|DICT|INTERRES
   118   59  122 1    
   119   60   61 2    
   120   60   62 1    
   121   62   63 1    
   122   62   64 1    
   123   62  123 1    
   124   63  124 1    
   125   63  125 1    
   126   63  126 1    
   127   64   65 am   BACKBONE|DICT|INTERRES
   128   64  127 1    
   129   65   66 2    
@<TRIPOS>SUBSTRUCTURE
     1 UNK         1 GROUP             0       ****    0 ROOT    
