@<TRIPOS>MOLECULE
3R135
127   129    1
SMALL
USER_CHARGES


@<TRIPOS>ATOM
      1 CA        -86.3026   25.3798  -70.4939 C.3       0 UNK        -0.1998 
      2 C         -85.4269   25.9462  -71.6013 C.2       0 UNK         0.4909 
      3 O         -85.9428   26.3675  -72.6380 O.2       0 UNK        -0.5240 
      4 N         -84.1028   25.9540  -71.3991 N.am      1 UNK        -0.4739 
      5 CA        -83.0995   26.4411  -72.3529 C.3       1 UNK         0.0864 
      6 C6        -81.8277   26.9264  -71.6125 C.3       11 UNK        -0.0881 
      7 S7        -80.7587   27.9723  -72.6561 S.3       11 UNK        -0.2682 
      8 C8        -79.7186   28.7481  -71.3800 C.3       11 UNK         0.0289 
      9 C9        -78.3525   29.1525  -71.9176 C.ar      11 UNK        -0.0687 
     10 C10       -78.2461   30.0133  -73.0150 C.ar      11 UNK        -0.0823 
     11 C11       -76.9924   30.3953  -73.5019 C.ar      11 UNK        -0.0830 
     12 C12       -75.8387   29.9375  -72.8600 C.ar      11 UNK        -0.1021 
     13 C13       -75.9314   29.0715  -71.7666 C.ar      11 UNK        -0.0753 
     14 C14       -77.1893   28.6782  -71.3024 C.ar      11 UNK        -0.0933 
     15 C15       -74.6665   28.5640  -71.0961 C.3       11 UNK         0.0166 
     16 S16       -73.9187   27.2291  -72.0770 S.3       11 UNK        -0.2615 
     17 C17       -72.1579   27.3645  -71.6081 C.3       11 UNK        -0.0865 
     18 CA        -71.4401   28.6066  -72.2091 C.3       10 UNK         0.0862 
     19 C         -69.9223   28.6161  -71.8660 C.2       10 UNK         0.5551 
     20 N         -69.0152   28.7665  -72.8252 N.am      10 UNK        -0.7319 
     21 O         -69.5590   28.5023  -70.6977 O.2       10 UNK        -0.5018 
     22 N         -71.7141   28.7602  -73.6439 N.am      10 UNK        -0.4509 
     23 C         -71.9215   29.9269  -74.2673 C.2       10 UNK         0.4899 
     24 O         -71.9721   31.0111  -73.6842 O.2       10 UNK        -0.4839 
     25 CA        -72.1132   29.8806  -75.7977 C.3       9 UNK         0.0222 
     26 CB        -71.6608   31.1815  -76.4940 C.3       9 UNK        -0.1966 
     27 N         -71.5075   28.7056  -76.4395 N.am      9 UNK        -0.4218 
     28 C         -70.2102   28.3586  -76.4153 C.2       9 UNK         0.5020 
     29 O         -69.3360   29.0295  -75.8613 O.2       9 UNK        -0.5274 
     30 CA        -69.8378   27.0157  -77.0777 C.3       8 UNK         0.0270 
     31 CB        -68.4210   26.5399  -76.6920 C.3       8 UNK        -0.1976 
     32 N         -70.8078   25.9402  -76.8305 N.am      8 UNK        -0.4313 
     33 C         -71.2779   25.5061  -75.6518 C.2       8 UNK         0.5041 
     34 O         -70.9953   26.0246  -74.5708 O.2       8 UNK        -0.5577 
     35 CA        -72.2491   24.3077  -75.7051 C.3       7 UNK         0.0284 
     36 CB        -72.6647   23.8264  -74.3026 C.3       7 UNK        -0.1958 
     37 N         -73.4536   24.6214  -76.4788 N.am      7 UNK        -0.4454 
     38 C         -73.5125   24.7194  -77.8163 C.2       7 UNK         0.5089 
     39 O         -72.5597   24.4568  -78.5524 O.2       7 UNK        -0.5125 
     40 CA        -74.8176   25.2409  -78.4494 C.3       6 UNK         0.0408 
     41 CB        -75.6063   24.0808  -79.0751 C.3       6 UNK        -0.1791 
     42 N         -75.6778   25.9792  -77.5183 N.am      6 UNK        -0.4762 
     43 C         -75.3354   27.1257  -76.9041 C.2       6 UNK         0.5007 
     44 O         -74.2737   27.7080  -77.1301 O.2       6 UNK        -0.5032 
     45 CA        -76.3001   27.6912  -75.8310 C.3       5 UNK         0.0783 
     46 C46       -77.0526   28.9500  -76.3420 C.3       11 UNK        -0.0857 
     47 S47       -76.0672   30.4739  -76.1339 S.3       11 UNK        -0.2512 
     48 C48       -76.8880   31.2955  -74.7262 C.3       11 UNK         0.0225 
     49 N         -77.2345   26.6933  -75.2929 N.am      5 UNK        -0.4615 
     50 C         -76.8879   25.5653  -74.6556 C.2       4 UNK         0.5053 
     51 O         -75.7232   25.2407  -74.4286 O.2       4 UNK        -0.5105 
     52 CA        -78.0225   24.5943  -74.2766 C.3       4 UNK         0.0263 
     53 CB        -78.4507   24.8206  -72.8190 C.3       4 UNK        -0.1981 
     54 N         -79.1984   24.6418  -75.1625 N.am      4 UNK        -0.4224 
     55 C         -79.1594   24.4155  -76.4886 C.2       3 UNK         0.4895 
     56 O         -78.1120   24.2038  -77.0998 O.2       3 UNK        -0.5091 
     57 CA        -80.4831   24.4339  -77.2725 C.3       3 UNK         0.0250 
     58 CB        -80.4456   23.5331  -78.5230 C.3       3 UNK        -0.1996 
     59 N         -81.6102   24.0491  -76.4267 N.am      3 UNK        -0.4254 
     60 C         -82.8188   24.6216  -76.4477 C.2       2 UNK         0.5004 
     61 O         -83.1460   25.5148  -77.2305 O.2       2 UNK        -0.5226 
     62 CA        -83.8318   24.1496  -75.3894 C.3       2 UNK         0.0269 
     63 CB        -83.6350   22.6833  -74.9409 C.3       2 UNK        -0.1926 
     64 N         -83.8445   25.0561  -74.2360 N.am      2 UNK        -0.4687 
     65 C         -82.8142   25.3780  -73.4392 C.2       1 UNK         0.5165 
     66 O         -81.6971   24.8623  -73.5294 O.2       1 UNK        -0.5079 
     67 H67       -85.7146   25.0470  -69.6384 H         1 UNK         0.0900 
     68 H68       -86.8726   24.5287  -70.8655 H         1 UNK         0.0900 
     69 H69       -87.0061   26.1370  -70.1478 H         1 UNK         0.0900 
     70 H70       -83.7346   25.5622  -70.5435 H         1 UNK         0.2959 
     71 H71       -83.5214   27.3076  -72.8683 H         1 UNK         0.1079 
     72 H72       -82.1179   27.5204  -70.7439 H         1 UNK         0.0837 
     73 H73       -81.2470   26.0871  -71.2241 H         1 UNK         0.0837 
     74 H74       -80.2289   29.6280  -70.9871 H         1 UNK         0.0685 
     75 H75       -79.6029   28.0570  -70.5440 H         1 UNK         0.0685 
     76 H76       -79.1452   30.3733  -73.4965 H         1 UNK         0.1434 
     77 H77       -74.8656   30.2335  -73.2284 H         1 UNK         0.1329 
     78 H78       -77.2606   28.0076  -70.4570 H         1 UNK         0.1335 
     79 H79       -74.8751   28.1978  -70.0898 H         1 UNK         0.0680 
     80 H80       -73.9715   29.3956  -70.9831 H         1 UNK         0.0680 
     81 H81       -71.6619   26.4505  -71.9406 H         1 UNK         0.1032 
     82 H82       -72.0842   27.3680  -70.5191 H         1 UNK         0.1032 
     83 H83       -71.8380   29.4804  -71.6929 H         1 UNK         0.0461 
     84 H84       -68.0380   28.7763  -72.5816 H         1 UNK         0.3453 
     85 H85       -69.2935   28.8631  -73.7953 H         1 UNK         0.3453 
     86 H86       -71.6372   27.9041  -74.1846 H         1 UNK         0.2984 
     87 H87       -73.1870   29.7876  -75.9528 H         1 UNK         0.0554 
     88 H88       -71.8255   31.1328  -77.5702 H         1 UNK         0.0847 
     89 H89       -70.6035   31.3859  -76.3235 H         1 UNK         0.0847 
     90 H90       -72.2219   32.0399  -76.1224 H         1 UNK         0.0847 
     91 H91       -72.1733   28.0784  -76.8792 H         1 UNK         0.3141 
     92 H92       -69.8460   27.1971  -78.1534 H         1 UNK         0.0743 
     93 H93       -68.3332   26.3724  -75.6177 H         1 UNK         0.0784 
     94 H94       -68.1624   25.6101  -77.1986 H         1 UNK         0.0784 
     95 H95       -67.6679   27.2784  -76.9702 H         1 UNK         0.0784 
     96 H96       -71.1653   25.4648  -77.6561 H         1 UNK         0.3213 
     97 H97       -71.7234   23.4853  -76.1952 H         1 UNK         0.0855 
     98 H98       -73.1773   24.6106  -73.7437 H         1 UNK         0.0814 
     99 H99       -71.7934   23.5286  -73.7181 H         1 UNK         0.0814 
    100 H100      -73.3303   22.9651  -74.3571 H         1 UNK         0.0814 
    101 H101      -74.2725   24.8833  -75.9390 H         1 UNK         0.3105 
    102 H102      -74.5370   25.9292  -79.2492 H         1 UNK         0.0547 
    103 H103      -75.0130   23.5707  -79.8351 H         1 UNK         0.0837 
    104 H104      -75.8866   23.3363  -78.3290 H         1 UNK         0.0837 
    105 H105      -76.5184   24.4319  -79.5580 H         1 UNK         0.0837 
    106 H106      -76.5550   25.5311  -77.2700 H         1 UNK         0.3020 
    107 H107      -75.6708   27.9801  -74.9855 H         1 UNK         0.1245 
    108 H108      -77.9936   29.0809  -75.8059 H         1 UNK         0.0781 
    109 H109      -77.3342   28.8487  -77.3920 H         1 UNK         0.0781 
    110 H110      -77.8745   31.6361  -75.0447 H         1 UNK         0.0836 
    111 H111      -76.3253   32.1922  -74.4634 H         1 UNK         0.0836 
    112 H112      -78.2169   26.8694  -75.4395 H         1 UNK         0.3022 
    113 H113      -77.6123   23.5850  -74.3510 H         1 UNK         0.0747 
    114 H114      -79.2005   24.0946  -72.5044 H         1 UNK         0.0793 
    115 H115      -77.5999   24.7235  -72.1432 H         1 UNK         0.0793 
    116 H116      -78.8649   25.8171  -72.6740 H         1 UNK         0.0793 
    117 H117      -80.0928   24.8175  -74.7113 H         1 UNK         0.3047 
    118 H118      -80.6116   25.4671  -77.6019 H         1 UNK         0.0822 
    119 H119      -81.3811   23.5886  -79.0799 H         1 UNK         0.0807 
    120 H120      -80.2733   22.4891  -78.2594 H         1 UNK         0.0807 
    121 H121      -79.6492   23.8353  -79.2044 H         1 UNK         0.0807 
    122 H122      -81.4236   23.3514  -75.7190 H         1 UNK         0.2946 
    123 H123      -84.8159   24.2197  -75.8564 H         1 UNK         0.1144 
    124 H124      -83.6162   22.0107  -75.7998 H         1 UNK         0.0793 
    125 H125      -84.4567   22.3608  -74.3016 H         1 UNK         0.0793 
    126 H126      -82.7110   22.5315  -74.3827 H         1 UNK         0.0793 
    127 H127      -84.7257   25.5255  -74.0497 H         1 UNK         0.2896 
@<TRIPOS>BOND
     1    1    2 1    
     2    1   67 1    
     3    1   68 1    
     4    1   69 1    
     5    2    3 2    
     6    2    4 am   BACKBONE|DICT|INTERRES
     7    4    5 1    
     8    4   70 1    
     9    5    6 1    
    10    5   65 1    
    11    5   71 1    
    12    6    7 1    
    13    6   72 1    
    14    6   73 1    
    15    7    8 1    
    16    8    9 1    
    17    8   74 1    
    18    8   75 1    
    19    9   10 ar   
    20    9   14 ar   
    21   10   11 ar   
    22   10   76 1    
    23   11   12 ar   
    24   11   48 1    
    25   12   13 ar   
    26   12   77 1    
    27   13   14 ar   
    28   13   15 1    
    29   14   78 1    
    30   15   16 1    
    31   15   79 1    
    32   15   80 1    
    33   16   17 1    
    34   17   18 1    
    35   17   81 1    
    36   17   82 1    
    37   18   19 1    
    38   18   22 1    
    39   18   83 1    
    40   19   20 am   BACKBONE|DICT|INTERRES
    41   19   21 2    
    42   20   84 1    
    43   20   85 1    
    44   22   23 am   BACKBONE|DICT|INTERRES
    45   22   86 1    
    46   23   24 2    
    47   23   25 1    
    48   25   26 1    
    49   25   27 1    
    50   25   87 1    
    51   26   88 1    
    52   26   89 1    
    53   26   90 1    
    54   27   28 am   BACKBONE|DICT|INTERRES
    55   27   91 1    
    56   28   29 2    
    57   28   30 1    
    58   30   31 1    
    59   30   32 1    
    60   30   92 1    
    61   31   93 1    
    62   31   94 1    
    63   31   95 1    
    64   32   33 am   BACKBONE|DICT|INTERRES
    65   32   96 1    
    66   33   34 2    
    67   33   35 1    
    68   35   36 1    
    69   35   37 1    
    70   35   97 1    
    71   36   98 1    
    72   36   99 1    
    73   36  100 1    
    74   37   38 am   BACKBONE|DICT|INTERRES
    75   37  101 1    
    76   38   39 2    
    77   38   40 1    
    78   40   41 1    
    79   40   42 1    
    80   40  102 1    
    81   41  103 1    
    82   41  104 1    
    83   41  105 1    
    84   42   43 am   BACKBONE|DICT|INTERRES
    85   42  106 1    
    86   43   44 2    
    87   43   45 1    
    88   45   46 1    
    89   45   49 1    
    90   45  107 1    
    91   46   47 1    
    92   46  108 1    
    93   46  109 1    
    94   47   48 1    
    95   48  110 1    
    96   48  111 1    
    97   49   50 am   BACKBONE|DICT|INTERRES
    98   49  112 1    
    99   50   51 2    
   100   50   52 1    
   101   52   53 1    
   102   52   54 1    
   103   52  113 1    
   104   53  114 1    
   105   53  115 1    
   106   53  116 1    
   107   54   55 am   BACKBONE|DICT|INTERRES
   108   54  117 1    
   109   55   56 2    
   110   55   57 1    
   111   57   58 1    
   112   57   59 1    
   113   57  118 1    
   114   58  119 1    
   115   58  120 1    
   116   58  121 1    
   117   59   60 am   BACKBONE|DICT|INTERRES
   118   59  122 1    
   119   60   61 2    
   120   60   62 1    
   121   62   63 1    
   122   62   64 1    
   123   62  123 1    
   124   63  124 1    
   125   63  125 1    
   126   63  126 1    
   127   64   65 am   BACKBONE|DICT|INTERRES
   128   64  127 1    
   129   65   66 2    
@<TRIPOS>SUBSTRUCTURE
     1 UNK         1 GROUP             0       ****    0 ROOT    
