@<TRIPOS>MOLECULE
3R135
127   129    1
SMALL
USER_CHARGES


@<TRIPOS>ATOM
      1 CA        -83.0814   25.0766  -72.6077 C.3       0 UNK        -0.1998 
      2 C         -82.5246   26.3437  -71.9628 C.2       0 UNK         0.4909 
      3 O         -82.1867   26.3184  -70.7811 O.2       0 UNK        -0.5240 
      4 N         -82.4250   27.4785  -72.6706 N.am      1 UNK        -0.4739 
      5 CA        -82.6931   27.6841  -74.0984 C.3       1 UNK         0.0864 
      6 C6        -82.6869   29.2021  -74.4451 C.3       11 UNK        -0.0881 
      7 S7        -81.0490   30.0026  -74.6514 S.3       11 UNK        -0.2682 
      8 C8        -80.5747   30.4489  -72.9509 C.3       11 UNK         0.0289 
      9 C9        -79.2324   29.8322  -72.5778 C.ar      11 UNK        -0.0687 
     10 C10       -79.1754   28.6535  -71.8265 C.ar      11 UNK        -0.0823 
     11 C11       -77.9452   28.0883  -71.4803 C.ar      11 UNK        -0.0830 
     12 C12       -76.7679   28.7134  -71.8925 C.ar      11 UNK        -0.1021 
     13 C13       -76.8020   29.8831  -72.6548 C.ar      11 UNK        -0.0753 
     14 C14       -78.0410   30.4423  -72.9872 C.ar      11 UNK        -0.0933 
     15 C15       -75.5105   30.5084  -73.1708 C.3       11 UNK         0.0166 
     16 S16       -74.4114   31.1119  -71.8482 S.3       11 UNK        -0.2615 
     17 C17       -73.2681   29.7055  -71.5828 C.3       11 UNK        -0.0865 
     18 CA        -71.9929   29.7878  -72.4648 C.3       10 UNK         0.0862 
     19 C         -70.8619   28.8407  -71.9618 C.2       10 UNK         0.5551 
     20 N         -70.1606   28.1115  -72.8230 N.am      10 UNK        -0.7319 
     21 O         -70.5989   28.7763  -70.7634 O.2       10 UNK        -0.5018 
     22 N         -72.3216   29.5776  -73.8828 N.am      10 UNK        -0.4509 
     23 C         -71.8368   30.2968  -74.9007 C.2       10 UNK         0.4899 
     24 O         -71.0965   31.2723  -74.7624 O.2       10 UNK        -0.4839 
     25 CA        -72.2446   29.8311  -76.3128 C.3       9 UNK         0.0222 
     26 CB        -71.4163   30.5012  -77.4292 C.3       9 UNK        -0.1966 
     27 N         -72.2310   28.3707  -76.4727 N.am      9 UNK        -0.4218 
     28 C         -71.1956   27.5388  -76.2702 C.2       9 UNK         0.5020 
     29 O         -70.0920   27.9165  -75.8735 O.2       9 UNK        -0.5274 
     30 CA        -71.4085   26.0293  -76.5072 C.3       8 UNK         0.0270 
     31 CB        -71.1489   25.2438  -75.2096 C.3       8 UNK        -0.1976 
     32 N         -72.7405   25.6828  -77.0078 N.am      8 UNK        -0.4313 
     33 C         -73.1777   25.8646  -78.2612 C.2       8 UNK         0.5041 
     34 O         -72.4700   26.2738  -79.1818 O.2       8 UNK        -0.5577 
     35 CA        -74.6757   25.6023  -78.5116 C.3       7 UNK         0.0284 
     36 CB        -74.9266   24.1196  -78.8249 C.3       7 UNK        -0.1958 
     37 N         -75.5209   26.0285  -77.3880 N.am      7 UNK        -0.4454 
     38 C         -75.6180   27.2964  -76.9589 C.2       7 UNK         0.5089 
     39 O         -75.0529   28.2456  -77.5007 O.2       7 UNK        -0.5125 
     40 CA        -76.4190   27.5455  -75.6764 C.3       6 UNK         0.0408 
     41 CB        -77.9126   27.7143  -75.9750 C.3       6 UNK        -0.1791 
     42 N         -76.2151   26.4812  -74.6952 N.am      6 UNK        -0.4762 
     43 C         -75.1201   26.3541  -73.9318 C.2       6 UNK         0.5007 
     44 O         -74.1823   27.1557  -73.9412 O.2       6 UNK        -0.5032 
     45 CA        -75.0365   25.0953  -73.0400 C.3       5 UNK         0.0783 
     46 C46       -75.6805   25.3035  -71.6453 C.3       11 UNK        -0.0857 
     47 S47       -77.5129   25.3431  -71.6553 S.3       11 UNK        -0.2512 
     48 C48       -77.8885   26.8146  -70.6474 C.3       11 UNK         0.0225 
     49 N         -75.5600   23.8952  -73.6996 N.am      5 UNK        -0.4615 
     50 C         -75.0412   23.3307  -74.7966 C.2       4 UNK         0.5053 
     51 O         -74.0282   23.7424  -75.3575 O.2       4 UNK        -0.5105 
     52 CA        -75.7974   22.1304  -75.3955 C.3       4 UNK         0.0263 
     53 CB        -75.2609   20.8162  -74.8070 C.3       4 UNK        -0.1981 
     54 N         -77.2548   22.1826  -75.2261 N.am      4 UNK        -0.4224 
     55 C         -78.0484   23.1824  -75.6362 C.2       3 UNK         0.4895 
     56 O         -77.6248   24.1989  -76.1961 O.2       3 UNK        -0.5091 
     57 CA        -79.5516   23.0174  -75.3473 C.3       3 UNK         0.0250 
     58 CB        -79.8206   22.8222  -73.8432 C.3       3 UNK        -0.1996 
     59 N         -80.2735   24.2077  -75.7843 N.am      3 UNK        -0.4254 
     60 C         -80.9566   24.3598  -76.9202 C.2       2 UNK         0.5004 
     61 O         -81.2000   23.4337  -77.6967 O.2       2 UNK        -0.5226 
     62 CA        -81.4344   25.7958  -77.2448 C.3       2 UNK         0.0269 
     63 CB        -82.2526   25.8621  -78.5487 C.3       2 UNK        -0.1926 
     64 N         -82.2014   26.4604  -76.1789 N.am      2 UNK        -0.4687 
     65 C         -81.7314   26.8668  -74.9902 C.2       1 UNK         0.5165 
     66 O         -80.5889   26.6337  -74.5924 O.2       1 UNK        -0.5079 
     67 H67       -83.9702   25.2816  -73.2024 H         1 UNK         0.0900 
     68 H68       -83.3627   24.3547  -71.8413 H         1 UNK         0.0900 
     69 H69       -82.3307   24.6089  -73.2427 H         1 UNK         0.0900 
     70 H70       -82.0504   28.2877  -72.2021 H         1 UNK         0.2959 
     71 H71       -83.7050   27.3187  -74.2829 H         1 UNK         0.1079 
     72 H72       -83.2707   29.7629  -73.7131 H         1 UNK         0.0837 
     73 H73       -83.2164   29.3449  -75.3887 H         1 UNK         0.0837 
     74 H74       -81.3452   30.1446  -72.2423 H         1 UNK         0.0685 
     75 H75       -80.5120   31.5356  -72.8776 H         1 UNK         0.0685 
     76 H76       -80.0861   28.1710  -71.5057 H         1 UNK         0.1434 
     77 H77       -75.8221   28.2752  -71.6297 H         1 UNK         0.1329 
     78 H78       -78.0834   31.3438  -73.5828 H         1 UNK         0.1335 
     79 H79       -75.7360   31.3485  -73.8292 H         1 UNK         0.0680 
     80 H80       -74.9807   29.7838  -73.7850 H         1 UNK         0.0680 
     81 H81       -73.0054   29.7224  -70.5235 H         1 UNK         0.1032 
     82 H82       -73.7675   28.7532  -71.7468 H         1 UNK         0.1032 
     83 H83       -71.5847   30.7920  -72.3379 H         1 UNK         0.0461 
     84 H84       -70.3132   28.1871  -73.8213 H         1 UNK         0.3453 
     85 H85       -69.4288   27.5141  -72.4735 H         1 UNK         0.3453 
     86 H86       -72.8994   28.7666  -74.0807 H         1 UNK         0.2984 
     87 H87       -73.2824   30.1407  -76.4426 H         1 UNK         0.0554 
     88 H88       -71.7481   30.1785  -78.4161 H         1 UNK         0.0847 
     89 H89       -70.3546   30.2687  -77.3395 H         1 UNK         0.0847 
     90 H90       -71.5161   31.5867  -77.3944 H         1 UNK         0.0847 
     91 H91       -73.1074   27.9725  -76.7907 H         1 UNK         0.3141 
     92 H92       -70.6720   25.7145  -77.2492 H         1 UNK         0.0743 
     93 H93       -70.1413   25.4239  -74.8328 H         1 UNK         0.0784 
     94 H94       -71.8474   25.5286  -74.4218 H         1 UNK         0.0784 
     95 H95       -71.2443   24.1697  -75.3699 H         1 UNK         0.0784 
     96 H96       -73.3682   25.2396  -76.3406 H         1 UNK         0.3213 
     97 H97       -74.9739   26.1889  -79.3833 H         1 UNK         0.0855 
     98 H98       -74.5543   23.4718  -78.0323 H         1 UNK         0.0814 
     99 H99       -74.4160   23.8282  -79.7436 H         1 UNK         0.0814 
    100 H100      -75.9881   23.9119  -78.9622 H         1 UNK         0.0814 
    101 H101      -76.0574   25.3145  -76.9043 H         1 UNK         0.3105 
    102 H102      -76.0675   28.4847  -75.2510 H         1 UNK         0.0547 
    103 H103      -78.4498   28.0275  -75.0795 H         1 UNK         0.0837 
    104 H104      -78.0797   28.4807  -76.7326 H         1 UNK         0.0837 
    105 H105      -78.3624   26.7898  -76.3349 H         1 UNK         0.0837 
    106 H106      -76.9209   25.7573  -74.6572 H         1 UNK         0.3020 
    107 H107      -73.9700   24.9211  -72.8782 H         1 UNK         0.1245 
    108 H108      -75.2753   26.1934  -71.1642 H         1 UNK         0.0781 
    109 H109      -75.3861   24.4783  -70.9949 H         1 UNK         0.0781 
    110 H110      -77.1560   26.9202  -69.8459 H         1 UNK         0.0836 
    111 H111      -78.8479   26.6513  -70.1538 H         1 UNK         0.0836 
    112 H112      -76.4051   23.5080  -73.3061 H         1 UNK         0.3022 
    113 H113      -75.6014   22.1236  -76.4683 H         1 UNK         0.0747 
    114 H114      -75.7057   19.9498  -75.2969 H         1 UNK         0.0793 
    115 H115      -74.1806   20.7413  -74.9413 H         1 UNK         0.0793 
    116 H116      -75.4623   20.7396  -73.7377 H         1 UNK         0.0793 
    117 H117      -77.6804   21.3832  -74.7792 H         1 UNK         0.3047 
    118 H118      -79.9056   22.1391  -75.8909 H         1 UNK         0.0822 
    119 H119      -79.3172   21.9393  -73.4487 H         1 UNK         0.0807 
    120 H120      -80.8849   22.6861  -73.6524 H         1 UNK         0.0807 
    121 H121      -79.4869   23.6808  -73.2593 H         1 UNK         0.0807 
    122 H122      -80.1302   25.0489  -75.2268 H         1 UNK         0.2946 
    123 H123      -80.5268   26.3818  -77.4051 H         1 UNK         0.1144 
    124 H124      -81.6920   25.4451  -79.3865 H         1 UNK         0.0793 
    125 H125      -82.4995   26.8908  -78.8121 H         1 UNK         0.0793 
    126 H126      -83.1847   25.3014  -78.4680 H         1 UNK         0.0793 
    127 H127      -83.1617   26.6728  -76.4090 H         1 UNK         0.2896 
@<TRIPOS>BOND
     1    1    2 1    
     2    1   67 1    
     3    1   68 1    
     4    1   69 1    
     5    2    3 2    
     6    2    4 am   BACKBONE|DICT|INTERRES
     7    4    5 1    
     8    4   70 1    
     9    5    6 1    
    10    5   65 1    
    11    5   71 1    
    12    6    7 1    
    13    6   72 1    
    14    6   73 1    
    15    7    8 1    
    16    8    9 1    
    17    8   74 1    
    18    8   75 1    
    19    9   10 ar   
    20    9   14 ar   
    21   10   11 ar   
    22   10   76 1    
    23   11   12 ar   
    24   11   48 1    
    25   12   13 ar   
    26   12   77 1    
    27   13   14 ar   
    28   13   15 1    
    29   14   78 1    
    30   15   16 1    
    31   15   79 1    
    32   15   80 1    
    33   16   17 1    
    34   17   18 1    
    35   17   81 1    
    36   17   82 1    
    37   18   19 1    
    38   18   22 1    
    39   18   83 1    
    40   19   20 am   BACKBONE|DICT|INTERRES
    41   19   21 2    
    42   20   84 1    
    43   20   85 1    
    44   22   23 am   BACKBONE|DICT|INTERRES
    45   22   86 1    
    46   23   24 2    
    47   23   25 1    
    48   25   26 1    
    49   25   27 1    
    50   25   87 1    
    51   26   88 1    
    52   26   89 1    
    53   26   90 1    
    54   27   28 am   BACKBONE|DICT|INTERRES
    55   27   91 1    
    56   28   29 2    
    57   28   30 1    
    58   30   31 1    
    59   30   32 1    
    60   30   92 1    
    61   31   93 1    
    62   31   94 1    
    63   31   95 1    
    64   32   33 am   BACKBONE|DICT|INTERRES
    65   32   96 1    
    66   33   34 2    
    67   33   35 1    
    68   35   36 1    
    69   35   37 1    
    70   35   97 1    
    71   36   98 1    
    72   36   99 1    
    73   36  100 1    
    74   37   38 am   BACKBONE|DICT|INTERRES
    75   37  101 1    
    76   38   39 2    
    77   38   40 1    
    78   40   41 1    
    79   40   42 1    
    80   40  102 1    
    81   41  103 1    
    82   41  104 1    
    83   41  105 1    
    84   42   43 am   BACKBONE|DICT|INTERRES
    85   42  106 1    
    86   43   44 2    
    87   43   45 1    
    88   45   46 1    
    89   45   49 1    
    90   45  107 1    
    91   46   47 1    
    92   46  108 1    
    93   46  109 1    
    94   47   48 1    
    95   48  110 1    
    96   48  111 1    
    97   49   50 am   BACKBONE|DICT|INTERRES
    98   49  112 1    
    99   50   51 2    
   100   50   52 1    
   101   52   53 1    
   102   52   54 1    
   103   52  113 1    
   104   53  114 1    
   105   53  115 1    
   106   53  116 1    
   107   54   55 am   BACKBONE|DICT|INTERRES
   108   54  117 1    
   109   55   56 2    
   110   55   57 1    
   111   57   58 1    
   112   57   59 1    
   113   57  118 1    
   114   58  119 1    
   115   58  120 1    
   116   58  121 1    
   117   59   60 am   BACKBONE|DICT|INTERRES
   118   59  122 1    
   119   60   61 2    
   120   60   62 1    
   121   62   63 1    
   122   62   64 1    
   123   62  123 1    
   124   63  124 1    
   125   63  125 1    
   126   63  126 1    
   127   64   65 am   BACKBONE|DICT|INTERRES
   128   64  127 1    
   129   65   66 2    
@<TRIPOS>SUBSTRUCTURE
     1 UNK         1 GROUP             0       ****    0 ROOT    
