@<TRIPOS>MOLECULE
3R135
127   129    1
SMALL
USER_CHARGES


@<TRIPOS>ATOM
      1 CA        -84.7813   30.6504  -75.0591 C.3       0 UNK        -0.1998 
      2 C         -83.8822   29.4351  -74.8905 C.2       0 UNK         0.4909 
      3 O         -84.3582   28.3776  -74.4749 O.2       0 UNK        -0.5240 
      4 N         -82.5887   29.5780  -75.2153 N.am      1 UNK        -0.4739 
      5 CA        -81.5303   28.5583  -75.1566 C.3       1 UNK         0.0864 
      6 C6        -81.3578   27.9349  -73.7431 C.3       11 UNK        -0.0881 
      7 S7        -79.7143   27.1891  -73.4828 S.3       11 UNK        -0.2682 
      8 C8        -78.9286   28.4441  -72.4237 C.3       11 UNK         0.0289 
      9 C9        -77.5445   28.0119  -71.9612 C.ar      11 UNK        -0.0687 
     10 C10       -77.4038   26.8880  -71.1423 C.ar      11 UNK        -0.0823 
     11 C11       -76.1426   26.4879  -70.6925 C.ar      11 UNK        -0.0830 
     12 C12       -75.0185   27.2428  -71.0375 C.ar      11 UNK        -0.1021 
     13 C13       -75.1451   28.3745  -71.8483 C.ar      11 UNK        -0.0753 
     14 C14       -76.4092   28.7470  -72.3190 C.ar      11 UNK        -0.0933 
     15 C15       -73.9144   29.1883  -72.2169 C.3       11 UNK         0.0166 
     16 S16       -73.9245   30.8154  -71.4043 S.3       11 UNK        -0.2615 
     17 C17       -72.1831   31.3361  -71.5769 C.3       11 UNK        -0.0865 
     18 CA        -71.8956   32.0093  -72.9427 C.3       10 UNK         0.0862 
     19 C         -70.5782   32.8257  -72.8958 C.2       10 UNK         0.5551 
     20 N         -70.6639   34.1278  -72.6602 N.am      10 UNK        -0.7319 
     21 O         -69.4813   32.2856  -73.0284 O.2       10 UNK        -0.5018 
     22 N         -71.8381   31.0103  -74.0149 N.am      10 UNK        -0.4509 
     23 C         -72.2265   31.2070  -75.2775 C.2       10 UNK         0.4899 
     24 O         -72.7561   32.2480  -75.6743 O.2       10 UNK        -0.4839 
     25 CA        -72.0102   30.0598  -76.2840 C.3       9 UNK         0.0222 
     26 CB        -70.7819   30.3400  -77.1724 C.3       9 UNK        -0.1966 
     27 N         -71.9582   28.6952  -75.7296 N.am      9 UNK        -0.4218 
     28 C         -71.0264   28.1334  -74.9397 C.2       9 UNK         0.5020 
     29 O         -70.1042   28.7671  -74.4263 O.2       9 UNK        -0.5274 
     30 CA        -71.1231   26.6183  -74.6544 C.3       8 UNK         0.0270 
     31 CB        -71.4388   26.3500  -73.1737 C.3       8 UNK        -0.1976 
     32 N         -72.1026   25.9167  -75.4880 N.am      8 UNK        -0.4313 
     33 C         -71.9558   25.6749  -76.8006 C.2       8 UNK         0.5041 
     34 O         -70.9164   25.9049  -77.4200 O.2       8 UNK        -0.5577 
     35 CA        -73.1737   25.1233  -77.5708 C.3       7 UNK         0.0284 
     36 CB        -72.9938   23.6235  -77.8529 C.3       7 UNK        -0.1958 
     37 N         -74.4599   25.3389  -76.8985 N.am      7 UNK        -0.4454 
     38 C         -74.9729   26.5359  -76.5686 C.2       7 UNK         0.5089 
     39 O         -74.4463   27.6060  -76.8754 O.2       7 UNK        -0.5125 
     40 CA        -76.2470   26.5545  -75.7023 C.3       6 UNK         0.0408 
     41 CB        -77.4653   26.8344  -76.5930 C.3       6 UNK        -0.1791 
     42 N         -76.4787   25.3295  -74.9249 N.am      6 UNK        -0.4762 
     43 C         -75.6150   24.7830  -74.0493 C.2       6 UNK         0.5007 
     44 O         -74.5170   25.2779  -73.7925 O.2       6 UNK        -0.5032 
     45 CA        -75.9770   23.4032  -73.4459 C.3       5 UNK         0.0783 
     46 C46       -76.5503   23.5077  -72.0101 C.3       11 UNK        -0.0857 
     47 S47       -75.2705   23.8478  -70.7531 S.3       11 UNK        -0.2512 
     48 C48       -75.9943   25.2431  -69.8301 C.3       11 UNK         0.0225 
     49 N         -76.8743   22.6186  -74.3008 N.am      5 UNK        -0.4615 
     50 C         -76.6330   22.2393  -75.5637 C.2       4 UNK         0.5053 
     51 O         -75.5734   22.4567  -76.1507 O.2       4 UNK        -0.5105 
     52 CA        -77.7842   21.5420  -76.3141 C.3       4 UNK         0.0263 
     53 CB        -77.5648   20.0208  -76.3325 C.3       4 UNK        -0.1981 
     54 N         -79.1229   21.8324  -75.7792 N.am      4 UNK        -0.4224 
     55 C         -79.6796   23.0505  -75.7107 C.2       3 UNK         0.4895 
     56 O         -79.1074   24.0850  -76.0586 O.2       3 UNK        -0.5091 
     57 CA        -81.0749   23.1246  -75.0703 C.3       3 UNK         0.0250 
     58 CB        -80.9487   23.2516  -73.5425 C.3       3 UNK        -0.1996 
     59 N         -81.8461   24.2607  -75.5751 N.am      3 UNK        -0.4254 
     60 C         -82.3691   24.3529  -76.8060 C.2       2 UNK         0.5004 
     61 O         -82.3126   23.4486  -77.6409 O.2       2 UNK        -0.5226 
     62 CA        -83.1034   25.6592  -77.1655 C.3       2 UNK         0.0269 
     63 CB        -84.6245   25.4351  -77.1883 C.3       2 UNK        -0.1926 
     64 N         -82.8045   26.7629  -76.2485 N.am      2 UNK        -0.4687 
     65 C         -81.6829   27.4939  -76.2647 C.2       1 UNK         0.5165 
     66 O         -80.8057   27.3705  -77.1191 O.2       1 UNK        -0.5079 
     67 H67       -85.5864   30.4265  -75.7592 H         1 UNK         0.0900 
     68 H68       -84.2339   31.5145  -75.4360 H         1 UNK         0.0900 
     69 H69       -85.2270   30.9218  -74.1021 H         1 UNK         0.0900 
     70 H70       -82.2838   30.4727  -75.5748 H         1 UNK         0.2959 
     71 H71       -80.6114   29.1023  -75.3842 H         1 UNK         0.1079 
     72 H72       -81.5136   28.7017  -72.9828 H         1 UNK         0.0837 
     73 H73       -82.1177   27.1774  -73.5443 H         1 UNK         0.0837 
     74 H74       -79.5522   28.6208  -71.5459 H         1 UNK         0.0685 
     75 H75       -78.8790   29.3885  -72.9683 H         1 UNK         0.0685 
     76 H76       -78.2817   26.3194  -70.8671 H         1 UNK         0.1434 
     77 H77       -74.0433   26.9374  -70.6837 H         1 UNK         0.1329 
     78 H78       -76.5068   29.6222  -72.9466 H         1 UNK         0.1335 
     79 H79       -73.0061   28.6587  -71.9310 H         1 UNK         0.0680 
     80 H80       -73.8795   29.3146  -73.2992 H         1 UNK         0.0680 
     81 H81       -71.5152   30.4901  -71.4035 H         1 UNK         0.1032 
     82 H82       -71.9898   32.0356  -70.7609 H         1 UNK         0.1032 
     83 H83       -72.7110   32.7056  -73.1505 H         1 UNK         0.0461 
     84 H84       -69.8179   34.6739  -72.6098 H         1 UNK         0.3453 
     85 H85       -71.5582   34.5782  -72.5393 H         1 UNK         0.3453 
     86 H86       -71.2806   30.1811  -73.8297 H         1 UNK         0.2984 
     87 H87       -72.8865   30.0641  -76.9342 H         1 UNK         0.0554 
     88 H88       -70.8782   31.3014  -77.6791 H         1 UNK         0.0847 
     89 H89       -70.6678   29.5779  -77.9436 H         1 UNK         0.0847 
     90 H90       -69.8588   30.3722  -76.5926 H         1 UNK         0.0847 
     91 H91       -72.7160   28.1001  -76.0536 H         1 UNK         0.3141 
     92 H92       -70.1377   26.1981  -74.8662 H         1 UNK         0.0743 
     93 H93       -70.7439   26.8751  -72.5168 H         1 UNK         0.0784 
     94 H94       -72.4462   26.6713  -72.9134 H         1 UNK         0.0784 
     95 H95       -71.3633   25.2875  -72.9412 H         1 UNK         0.0784 
     96 H96       -72.9844   25.6790  -75.0403 H         1 UNK         0.3213 
     97 H97       -73.2144   25.6501  -78.5264 H         1 UNK         0.0855 
     98 H98       -72.9534   23.0429  -76.9302 H         1 UNK         0.0814 
     99 H99       -72.0672   23.4357  -78.3974 H         1 UNK         0.0814 
    100 H100      -73.8105   23.2313  -78.4595 H         1 UNK         0.0814 
    101 H101      -74.9522   24.5063  -76.5931 H         1 UNK         0.3105 
    102 H102      -76.1463   27.3738  -74.9878 H         1 UNK         0.0547 
    103 H103      -77.3540   27.7784  -77.1276 H         1 UNK         0.0837 
    104 H104      -77.6095   26.0510  -77.3383 H         1 UNK         0.0837 
    105 H105      -78.3799   26.9029  -76.0077 H         1 UNK         0.0837 
    106 H106      -77.3484   24.8432  -75.1179 H         1 UNK         0.3020 
    107 H107      -75.0425   22.8392  -73.3977 H         1 UNK         0.1245 
    108 H108      -77.0074   22.5595  -71.7224 H         1 UNK         0.0781 
    109 H109      -77.3545   24.2426  -71.9657 H         1 UNK         0.0781 
    110 H110      -76.9565   24.9391  -69.4149 H         1 UNK         0.0836 
    111 H111      -75.3540   25.4708  -68.9767 H         1 UNK         0.0836 
    112 H112      -77.7769   22.3943  -73.9110 H         1 UNK         0.3022 
    113 H113      -77.7585   21.9045  -77.3440 H         1 UNK         0.0747 
    114 H114      -76.5877   19.7722  -76.7496 H         1 UNK         0.0793 
    115 H115      -78.3127   19.5183  -76.9463 H         1 UNK         0.0793 
    116 H116      -77.6088   19.5938  -75.3297 H         1 UNK         0.0793 
    117 H117      -79.6560   21.0381  -75.4538 H         1 UNK         0.3047 
    118 H118      -81.6214   22.2089  -75.3067 H         1 UNK         0.0822 
    119 H119      -81.9280   23.2992  -73.0657 H         1 UNK         0.0807 
    120 H120      -80.3933   24.1460  -73.2562 H         1 UNK         0.0807 
    121 H121      -80.4266   22.3937  -73.1172 H         1 UNK         0.0807 
    122 H122      -81.9065   25.0701  -74.9762 H         1 UNK         0.2946 
    123 H123      -82.7819   25.9426  -78.1704 H         1 UNK         0.1144 
    124 H124      -84.8929   24.6400  -77.8855 H         1 UNK         0.0793 
    125 H125      -85.1528   26.3345  -77.5054 H         1 UNK         0.0793 
    126 H126      -85.0050   25.1509  -76.2062 H         1 UNK         0.0793 
    127 H127      -83.5048   26.9993  -75.5503 H         1 UNK         0.2896 
@<TRIPOS>BOND
     1    1    2 1    
     2    1   67 1    
     3    1   68 1    
     4    1   69 1    
     5    2    3 2    
     6    2    4 am   BACKBONE|DICT|INTERRES
     7    4    5 1    
     8    4   70 1    
     9    5    6 1    
    10    5   65 1    
    11    5   71 1    
    12    6    7 1    
    13    6   72 1    
    14    6   73 1    
    15    7    8 1    
    16    8    9 1    
    17    8   74 1    
    18    8   75 1    
    19    9   10 ar   
    20    9   14 ar   
    21   10   11 ar   
    22   10   76 1    
    23   11   12 ar   
    24   11   48 1    
    25   12   13 ar   
    26   12   77 1    
    27   13   14 ar   
    28   13   15 1    
    29   14   78 1    
    30   15   16 1    
    31   15   79 1    
    32   15   80 1    
    33   16   17 1    
    34   17   18 1    
    35   17   81 1    
    36   17   82 1    
    37   18   19 1    
    38   18   22 1    
    39   18   83 1    
    40   19   20 am   BACKBONE|DICT|INTERRES
    41   19   21 2    
    42   20   84 1    
    43   20   85 1    
    44   22   23 am   BACKBONE|DICT|INTERRES
    45   22   86 1    
    46   23   24 2    
    47   23   25 1    
    48   25   26 1    
    49   25   27 1    
    50   25   87 1    
    51   26   88 1    
    52   26   89 1    
    53   26   90 1    
    54   27   28 am   BACKBONE|DICT|INTERRES
    55   27   91 1    
    56   28   29 2    
    57   28   30 1    
    58   30   31 1    
    59   30   32 1    
    60   30   92 1    
    61   31   93 1    
    62   31   94 1    
    63   31   95 1    
    64   32   33 am   BACKBONE|DICT|INTERRES
    65   32   96 1    
    66   33   34 2    
    67   33   35 1    
    68   35   36 1    
    69   35   37 1    
    70   35   97 1    
    71   36   98 1    
    72   36   99 1    
    73   36  100 1    
    74   37   38 am   BACKBONE|DICT|INTERRES
    75   37  101 1    
    76   38   39 2    
    77   38   40 1    
    78   40   41 1    
    79   40   42 1    
    80   40  102 1    
    81   41  103 1    
    82   41  104 1    
    83   41  105 1    
    84   42   43 am   BACKBONE|DICT|INTERRES
    85   42  106 1    
    86   43   44 2    
    87   43   45 1    
    88   45   46 1    
    89   45   49 1    
    90   45  107 1    
    91   46   47 1    
    92   46  108 1    
    93   46  109 1    
    94   47   48 1    
    95   48  110 1    
    96   48  111 1    
    97   49   50 am   BACKBONE|DICT|INTERRES
    98   49  112 1    
    99   50   51 2    
   100   50   52 1    
   101   52   53 1    
   102   52   54 1    
   103   52  113 1    
   104   53  114 1    
   105   53  115 1    
   106   53  116 1    
   107   54   55 am   BACKBONE|DICT|INTERRES
   108   54  117 1    
   109   55   56 2    
   110   55   57 1    
   111   57   58 1    
   112   57   59 1    
   113   57  118 1    
   114   58  119 1    
   115   58  120 1    
   116   58  121 1    
   117   59   60 am   BACKBONE|DICT|INTERRES
   118   59  122 1    
   119   60   61 2    
   120   60   62 1    
   121   62   63 1    
   122   62   64 1    
   123   62  123 1    
   124   63  124 1    
   125   63  125 1    
   126   63  126 1    
   127   64   65 am   BACKBONE|DICT|INTERRES
   128   64  127 1    
   129   65   66 2    
@<TRIPOS>SUBSTRUCTURE
     1 UNK         1 GROUP             0       ****    0 ROOT    
