@<TRIPOS>MOLECULE
3R135
127   129    1
SMALL
USER_CHARGES


@<TRIPOS>ATOM
      1 CA        -74.6756   24.5493  -69.5370 C.3       0 UNK        -0.1998 
      2 C         -76.1775   24.7715  -69.6334 C.2       0 UNK         0.4909 
      3 O         -76.9265   24.2358  -68.8159 O.2       0 UNK        -0.5240 
      4 N         -76.6245   25.5559  -70.6229 N.am      1 UNK        -0.4739 
      5 CA        -78.0412   25.8739  -70.8618 C.3       1 UNK         0.0864 
      6 C6        -78.1945   27.0692  -71.8317 C.3       11 UNK        -0.0881 
      7 S7        -77.7612   28.6390  -71.0143 S.3       11 UNK        -0.2682 
      8 C8        -79.1301   29.7066  -71.5651 C.3       11 UNK         0.0289 
      9 C9        -78.9802   30.0665  -73.0352 C.ar      11 UNK        -0.0687 
     10 C10       -79.8005   29.4882  -74.0086 C.ar      11 UNK        -0.0823 
     11 C11       -79.6444   29.8208  -75.3584 C.ar      11 UNK        -0.0830 
     12 C12       -78.6428   30.7321  -75.7212 C.ar      11 UNK        -0.1021 
     13 C13       -77.8003   31.3037  -74.7636 C.ar      11 UNK        -0.0753 
     14 C14       -78.0002   30.9837  -73.4161 C.ar      11 UNK        -0.0933 
     15 C15       -76.7023   32.2577  -75.2415 C.3       11 UNK         0.0166 
     16 S16       -75.4702   32.7810  -73.9978 S.3       11 UNK        -0.2615 
     17 C17       -74.6731   31.2127  -73.4830 C.3       11 UNK        -0.0865 
     18 CA        -73.3081   30.9195  -74.1676 C.3       10 UNK         0.0862 
     19 C         -72.1725   31.9491  -73.8723 C.2       10 UNK         0.5551 
     20 N         -70.9862   31.7410  -74.4315 N.am      10 UNK        -0.7319 
     21 O         -72.3383   32.9155  -73.1320 O.2       10 UNK        -0.5018 
     22 N         -72.8617   29.5308  -73.9437 N.am      10 UNK        -0.4509 
     23 C         -72.4633   29.0311  -72.7625 C.2       10 UNK         0.4899 
     24 O         -72.5703   29.6369  -71.6947 O.2       10 UNK        -0.4839 
     25 CA        -71.7803   27.6487  -72.7808 C.3       9 UNK         0.0222 
     26 CB        -71.4522   27.1214  -71.3662 C.3       9 UNK        -0.1966 
     27 N         -72.4979   26.6311  -73.5526 N.am      9 UNK        -0.4218 
     28 C         -73.7191   26.1294  -73.3215 C.2       9 UNK         0.5020 
     29 O         -74.4801   26.5154  -72.4316 O.2       9 UNK        -0.5274 
     30 CA        -74.1367   24.9762  -74.2505 C.3       8 UNK         0.0270 
     31 CB        -75.5109   24.3857  -73.8904 C.3       8 UNK        -0.1976 
     32 N         -74.1386   25.4272  -75.6424 N.am      8 UNK        -0.4313 
     33 C         -73.0700   25.3991  -76.4538 C.2       8 UNK         0.5041 
     34 O         -71.9855   24.9216  -76.1181 O.2       8 UNK        -0.5577 
     35 CA        -73.1921   26.0565  -77.8415 C.3       7 UNK         0.0284 
     36 CB        -73.4052   25.0040  -78.9386 C.3       7 UNK        -0.1958 
     37 N         -74.2559   27.0593  -77.9069 N.am      7 UNK        -0.4454 
     38 C         -74.1901   28.2528  -77.3002 C.2       7 UNK         0.5089 
     39 O         -73.1904   28.6597  -76.7064 O.2       7 UNK        -0.5125 
     40 CA        -75.4606   29.1216  -77.3139 C.3       6 UNK         0.0408 
     41 CB        -75.3814   30.1774  -78.4264 C.3       6 UNK        -0.1791 
     42 N         -76.7108   28.3654  -77.4478 N.am      6 UNK        -0.4762 
     43 C         -77.1465   27.4461  -76.5750 C.2       6 UNK         0.5007 
     44 O         -76.5044   27.1096  -75.5808 O.2       6 UNK        -0.5032 
     45 CA        -78.4931   26.7478  -76.8534 C.3       5 UNK         0.0783 
     46 C46       -79.2989   27.2738  -78.0804 C.3       11 UNK        -0.0857 
     47 S47       -79.8861   29.0039  -78.0559 S.3       11 UNK        -0.2512 
     48 C48       -80.6059   29.2317  -76.3920 C.3       11 UNK         0.0225 
     49 N         -78.2960   25.2950  -76.9332 N.am      5 UNK        -0.4615 
     50 C         -77.6153   24.6371  -77.8878 C.2       4 UNK         0.5053 
     51 O         -76.9496   25.2047  -78.7548 O.2       4 UNK        -0.5105 
     52 CA        -77.6936   23.0936  -77.9152 C.3       4 UNK         0.0263 
     53 CB        -76.3221   22.4569  -77.6366 C.3       4 UNK        -0.1981 
     54 N         -78.6779   22.5328  -76.9874 N.am      4 UNK        -0.4224 
     55 C         -80.0093   22.6195  -77.1219 C.2       3 UNK         0.4895 
     56 O         -80.5643   23.0776  -78.1211 O.2       3 UNK        -0.5091 
     57 CA        -80.8750   22.1491  -75.9338 C.3       3 UNK         0.0250 
     58 CB        -81.5684   20.8187  -76.2715 C.3       3 UNK        -0.1996 
     59 N         -80.1685   22.0062  -74.6511 N.am      3 UNK        -0.4254 
     60 C         -79.4920   22.9703  -74.0094 C.2       2 UNK         0.5004 
     61 O         -79.3408   24.1100  -74.4599 O.2       2 UNK        -0.5226 
     62 CA        -78.8329   22.5602  -72.6779 C.3       2 UNK         0.0269 
     63 CB        -77.7672   21.4695  -72.8937 C.3       2 UNK        -0.1926 
     64 N         -78.2032   23.7001  -72.0102 N.am      2 UNK        -0.4687 
     65 C         -78.8644   24.6683  -71.3637 C.2       1 UNK         0.5165 
     66 O         -80.0795   24.6409  -71.1585 O.2       1 UNK        -0.5079 
     67 H67       -74.4259   23.5332  -69.8407 H         1 UNK         0.0900 
     68 H68       -74.3396   24.6914  -68.5103 H         1 UNK         0.0900 
     69 H69       -74.1200   25.2413  -70.1680 H         1 UNK         0.0900 
     70 H70       -75.9561   25.9918  -71.2559 H         1 UNK         0.2959 
     71 H71       -78.4833   26.1521  -69.9021 H         1 UNK         0.1079 
     72 H72       -79.2202   27.1406  -72.1990 H         1 UNK         0.0837 
     73 H73       -77.5681   26.9433  -72.7175 H         1 UNK         0.0837 
     74 H74       -80.0866   29.2185  -71.3716 H         1 UNK         0.0685 
     75 H75       -79.1272   30.6197  -70.9680 H         1 UNK         0.0685 
     76 H76       -80.5703   28.7889  -73.7118 H         1 UNK         0.1434 
     77 H77       -78.5115   31.0060  -76.7585 H         1 UNK         0.1329 
     78 H78       -77.3822   31.4226  -72.6466 H         1 UNK         0.1335 
     79 H79       -77.1815   33.1559  -75.6329 H         1 UNK         0.0680 
     80 H80       -76.1679   31.8117  -76.0791 H         1 UNK         0.0680 
     81 H81       -75.3516   30.3823  -73.6810 H         1 UNK         0.1032 
     82 H82       -74.5533   31.2405  -72.3990 H         1 UNK         0.1032 
     83 H83       -73.4838   30.9952  -75.2412 H         1 UNK         0.0461 
     84 H84       -70.2345   32.3869  -74.2481 H         1 UNK         0.3453 
     85 H85       -70.8339   30.9482  -75.0348 H         1 UNK         0.3453 
     86 H86       -72.7587   28.9742  -74.7866 H         1 UNK         0.2984 
     87 H87       -70.8303   27.7957  -73.2966 H         1 UNK         0.0554 
     88 H88       -70.9399   26.1603  -71.4073 H         1 UNK         0.0847 
     89 H89       -72.3517   26.9973  -70.7624 H         1 UNK         0.0847 
     90 H90       -70.7980   27.8124  -70.8331 H         1 UNK         0.0847 
     91 H91       -71.9889   26.2322  -74.3339 H         1 UNK         0.3141 
     92 H92       -73.4027   24.1770  -74.1262 H         1 UNK         0.0743 
     93 H93       -76.3024   25.1347  -73.9160 H         1 UNK         0.0784 
     94 H94       -75.7888   23.5850  -74.5719 H         1 UNK         0.0784 
     95 H95       -75.4857   23.9611  -72.8871 H         1 UNK         0.0784 
     96 H96       -74.9655   25.9457  -75.9262 H         1 UNK         0.3213 
     97 H97       -72.2418   26.5569  -78.0416 H         1 UNK         0.0855 
     98 H98       -74.3679   24.5081  -78.8365 H         1 UNK         0.0814 
     99 H99       -72.6330   24.2343  -78.9001 H         1 UNK         0.0814 
    100 H100      -73.3654   25.4534  -79.9309 H         1 UNK         0.0814 
    101 H101      -75.1225   26.7874  -78.3543 H         1 UNK         0.3105 
    102 H102      -75.4985   29.6331  -76.3510 H         1 UNK         0.0547 
    103 H103      -75.3428   29.7187  -79.4152 H         1 UNK         0.0837 
    104 H104      -76.2393   30.8493  -78.4018 H         1 UNK         0.0837 
    105 H105      -74.4867   30.7920  -78.3168 H         1 UNK         0.0837 
    106 H106      -77.3020   28.5903  -78.2361 H         1 UNK         0.3020 
    107 H107      -79.0909   26.9062  -75.9555 H         1 UNK         0.1245 
    108 H108      -78.7293   27.1390  -79.0011 H         1 UNK         0.0781 
    109 H109      -80.1872   26.6522  -78.2060 H         1 UNK         0.0781 
    110 H110      -81.4487   29.9179  -76.4847 H         1 UNK         0.0836 
    111 H111      -81.0271   28.2869  -76.0455 H         1 UNK         0.0836 
    112 H112      -78.7361   24.7603  -76.1886 H         1 UNK         0.3022 
    113 H113      -77.9951   22.8088  -78.9255 H         1 UNK         0.0747 
    114 H114      -76.3912   21.3712  -77.5649 H         1 UNK         0.0793 
    115 H115      -75.6263   22.6728  -78.4462 H         1 UNK         0.0793 
    116 H116      -75.8772   22.8285  -76.7148 H         1 UNK         0.0793 
    117 H117      -78.3184   22.1399  -76.1306 H         1 UNK         0.3047 
    118 H118      -81.6462   22.9089  -75.7910 H         1 UNK         0.0822 
    119 H119      -82.2734   20.5277  -75.4925 H         1 UNK         0.0807 
    120 H120      -80.8484   20.0086  -76.3948 H         1 UNK         0.0807 
    121 H121      -82.1336   20.8959  -77.2016 H         1 UNK         0.0807 
    122 H122      -80.2287   21.0961  -74.2168 H         1 UNK         0.2946 
    123 H123      -79.6147   22.1650  -72.0248 H         1 UNK         0.1144 
    124 H124      -77.2700   21.2126  -71.9579 H         1 UNK         0.0793 
    125 H125      -77.0009   21.7805  -73.6032 H         1 UNK         0.0793 
    126 H126      -78.2098   20.5497  -73.2775 H         1 UNK         0.0793 
    127 H127      -77.2119   23.8212  -72.1471 H         1 UNK         0.2896 
@<TRIPOS>BOND
     1    1    2 1    
     2    1   67 1    
     3    1   68 1    
     4    1   69 1    
     5    2    3 2    
     6    2    4 am   BACKBONE|DICT|INTERRES
     7    4    5 1    
     8    4   70 1    
     9    5    6 1    
    10    5   65 1    
    11    5   71 1    
    12    6    7 1    
    13    6   72 1    
    14    6   73 1    
    15    7    8 1    
    16    8    9 1    
    17    8   74 1    
    18    8   75 1    
    19    9   10 ar   
    20    9   14 ar   
    21   10   11 ar   
    22   10   76 1    
    23   11   12 ar   
    24   11   48 1    
    25   12   13 ar   
    26   12   77 1    
    27   13   14 ar   
    28   13   15 1    
    29   14   78 1    
    30   15   16 1    
    31   15   79 1    
    32   15   80 1    
    33   16   17 1    
    34   17   18 1    
    35   17   81 1    
    36   17   82 1    
    37   18   19 1    
    38   18   22 1    
    39   18   83 1    
    40   19   20 am   BACKBONE|DICT|INTERRES
    41   19   21 2    
    42   20   84 1    
    43   20   85 1    
    44   22   23 am   BACKBONE|DICT|INTERRES
    45   22   86 1    
    46   23   24 2    
    47   23   25 1    
    48   25   26 1    
    49   25   27 1    
    50   25   87 1    
    51   26   88 1    
    52   26   89 1    
    53   26   90 1    
    54   27   28 am   BACKBONE|DICT|INTERRES
    55   27   91 1    
    56   28   29 2    
    57   28   30 1    
    58   30   31 1    
    59   30   32 1    
    60   30   92 1    
    61   31   93 1    
    62   31   94 1    
    63   31   95 1    
    64   32   33 am   BACKBONE|DICT|INTERRES
    65   32   96 1    
    66   33   34 2    
    67   33   35 1    
    68   35   36 1    
    69   35   37 1    
    70   35   97 1    
    71   36   98 1    
    72   36   99 1    
    73   36  100 1    
    74   37   38 am   BACKBONE|DICT|INTERRES
    75   37  101 1    
    76   38   39 2    
    77   38   40 1    
    78   40   41 1    
    79   40   42 1    
    80   40  102 1    
    81   41  103 1    
    82   41  104 1    
    83   41  105 1    
    84   42   43 am   BACKBONE|DICT|INTERRES
    85   42  106 1    
    86   43   44 2    
    87   43   45 1    
    88   45   46 1    
    89   45   49 1    
    90   45  107 1    
    91   46   47 1    
    92   46  108 1    
    93   46  109 1    
    94   47   48 1    
    95   48  110 1    
    96   48  111 1    
    97   49   50 am   BACKBONE|DICT|INTERRES
    98   49  112 1    
    99   50   51 2    
   100   50   52 1    
   101   52   53 1    
   102   52   54 1    
   103   52  113 1    
   104   53  114 1    
   105   53  115 1    
   106   53  116 1    
   107   54   55 am   BACKBONE|DICT|INTERRES
   108   54  117 1    
   109   55   56 2    
   110   55   57 1    
   111   57   58 1    
   112   57   59 1    
   113   57  118 1    
   114   58  119 1    
   115   58  120 1    
   116   58  121 1    
   117   59   60 am   BACKBONE|DICT|INTERRES
   118   59  122 1    
   119   60   61 2    
   120   60   62 1    
   121   62   63 1    
   122   62   64 1    
   123   62  123 1    
   124   63  124 1    
   125   63  125 1    
   126   63  126 1    
   127   64   65 am   BACKBONE|DICT|INTERRES
   128   64  127 1    
   129   65   66 2    
@<TRIPOS>SUBSTRUCTURE
     1 UNK         1 GROUP             0       ****    0 ROOT    
