@<TRIPOS>MOLECULE
3R135
127   129    1
SMALL
USER_CHARGES


@<TRIPOS>ATOM
      1 CA        -81.0139   29.8536  -76.3034 C.3       0 UNK        -0.1998 
      2 C         -80.6491   28.8917  -75.1835 C.2       0 UNK         0.4909 
      3 O         -79.6060   28.2440  -75.2501 O.2       0 UNK        -0.5240 
      4 N         -81.5022   28.7857  -74.1573 N.am      1 UNK        -0.4739 
      5 CA        -81.3207   27.9095  -72.9937 C.3       1 UNK         0.0864 
      6 C6        -82.0112   28.4800  -71.7266 C.3       11 UNK        -0.0881 
      7 S7        -81.4409   30.1598  -71.2897 S.3       11 UNK        -0.2682 
      8 C8        -80.3682   29.8491  -69.8517 C.3       11 UNK         0.0289 
      9 C9        -78.9867   29.3634  -70.2656 C.ar      11 UNK        -0.0687 
     10 C10       -78.6780   28.0001  -70.2461 C.ar      11 UNK        -0.0823 
     11 C11       -77.4032   27.5583  -70.6135 C.ar      11 UNK        -0.0830 
     12 C12       -76.4273   28.4920  -70.9752 C.ar      11 UNK        -0.1021 
     13 C13       -76.7253   29.8573  -71.0093 C.ar      11 UNK        -0.0753 
     14 C14       -78.0083   30.2855  -70.6525 C.ar      11 UNK        -0.0933 
     15 C15       -75.6583   30.8718  -71.4038 C.3       11 UNK         0.0166 
     16 S16       -74.9333   30.5258  -73.0420 S.3       11 UNK        -0.2615 
     17 C17       -74.0232   32.0755  -73.3763 C.3       11 UNK        -0.0865 
     18 CA        -72.4994   32.0896  -73.0487 C.3       10 UNK         0.0862 
     19 C         -72.1683   32.0494  -71.5242 C.2       10 UNK         0.5551 
     20 N         -71.1005   31.3951  -71.0873 N.am      10 UNK        -0.7319 
     21 O         -72.8593   32.6775  -70.7258 O.2       10 UNK        -0.5018 
     22 N         -71.6785   31.2627  -73.9577 N.am      10 UNK        -0.4509 
     23 C         -71.4432   29.9445  -73.9179 C.2       10 UNK         0.4899 
     24 O         -71.8898   29.1725  -73.0679 O.2       10 UNK        -0.4839 
     25 CA        -70.4564   29.4228  -74.9776 C.3       9 UNK         0.0222 
     26 CB        -69.0064   29.6627  -74.5224 C.3       9 UNK        -0.1966 
     27 N         -70.6429   27.9919  -75.2204 N.am      9 UNK        -0.4218 
     28 C         -71.5909   27.4730  -76.0094 C.2       9 UNK         0.5020 
     29 O         -72.3353   28.1546  -76.7192 O.2       9 UNK        -0.5274 
     30 CA        -71.6990   25.9379  -76.0049 C.3       8 UNK         0.0270 
     31 CB        -72.0135   25.4029  -74.5941 C.3       8 UNK        -0.1976 
     32 N         -72.7620   25.4989  -76.9083 N.am      8 UNK        -0.4313 
     33 C         -72.5848   24.8774  -78.0811 C.2       8 UNK         0.5041 
     34 O         -71.4757   24.5895  -78.5353 O.2       8 UNK        -0.5577 
     35 CA        -73.8375   24.4800  -78.8903 C.3       7 UNK         0.0284 
     36 CB        -74.0076   22.9513  -78.8998 C.3       7 UNK        -0.1958 
     37 N         -75.0755   25.0852  -78.3967 N.am      7 UNK        -0.4454 
     38 C         -75.4457   26.3561  -78.6007 C.2       7 UNK         0.5089 
     39 O         -74.8311   27.1412  -79.3227 O.2       7 UNK        -0.5125 
     40 CA        -76.7006   26.8406  -77.8508 C.3       6 UNK         0.0408 
     41 CB        -77.9517   26.6855  -78.7288 C.3       6 UNK        -0.1791 
     42 N         -76.9218   26.1543  -76.5743 N.am      6 UNK        -0.4762 
     43 C         -76.0918   26.1897  -75.5213 C.2       6 UNK         0.5007 
     44 O         -75.0340   26.8138  -75.5096 O.2       6 UNK        -0.5032 
     45 CA        -76.4815   25.3440  -74.2970 C.3       5 UNK         0.0783 
     46 C46       -77.5436   26.0823  -73.4541 C.3       11 UNK        -0.0857 
     47 S47       -78.0191   25.1883  -71.9355 S.3       11 UNK        -0.2512 
     48 C48       -77.0810   26.0708  -70.6450 C.3       11 UNK         0.0225 
     49 N         -76.9130   24.0079  -74.7132 N.am      5 UNK        -0.4615 
     50 C         -76.0893   23.0498  -75.1575 C.2       4 UNK         0.5053 
     51 O         -74.8665   23.1714  -75.2133 O.2       4 UNK        -0.5105 
     52 CA        -76.7373   21.7386  -75.6353 C.3       4 UNK         0.0263 
     53 CB        -76.8689   20.7491  -74.4667 C.3       4 UNK        -0.1981 
     54 N         -78.0511   21.9404  -76.2519 N.am      4 UNK        -0.4224 
     55 C         -78.2532   22.5598  -77.4242 C.2       3 UNK         0.4895 
     56 O         -77.3472   22.9868  -78.1397 O.2       3 UNK        -0.5091 
     57 CA        -79.7200   22.7875  -77.8373 C.3       3 UNK         0.0250 
     58 CB        -80.2877   21.5408  -78.5343 C.3       3 UNK        -0.1996 
     59 N         -80.5890   23.1684  -76.7142 N.am      3 UNK        -0.4254 
     60 C         -80.4048   24.2659  -75.9679 C.2       2 UNK         0.5004 
     61 O         -79.4910   25.0691  -76.1662 O.2       2 UNK        -0.5226 
     62 CA        -81.3459   24.4776  -74.7752 C.3       2 UNK         0.0269 
     63 CB        -81.0818   23.4174  -73.6852 C.3       2 UNK        -0.1926 
     64 N         -81.1053   25.8233  -74.2564 N.am      2 UNK        -0.4687 
     65 C         -81.8078   26.4820  -73.3311 C.2       1 UNK         0.5165 
     66 O         -82.8141   26.0221  -72.7877 O.2       1 UNK        -0.5079 
     67 H67       -81.9650   30.3527  -76.1193 H         1 UNK         0.0900 
     68 H68       -81.0885   29.3159  -77.2483 H         1 UNK         0.0900 
     69 H69       -80.2433   30.6171  -76.4056 H         1 UNK         0.0900 
     70 H70       -82.3502   29.3343  -74.1572 H         1 UNK         0.2959 
     71 H71       -80.2527   27.8350  -72.7730 H         1 UNK         0.1079 
     72 H72       -81.8554   27.8131  -70.8768 H         1 UNK         0.0837 
     73 H73       -83.0920   28.5295  -71.8720 H         1 UNK         0.0837 
     74 H74       -80.2681   30.7778  -69.2879 H         1 UNK         0.0685 
     75 H75       -80.8450   29.1389  -69.1744 H         1 UNK         0.0685 
     76 H76       -79.4314   27.2793  -69.9592 H         1 UNK         0.1434 
     77 H77       -75.4371   28.1583  -71.2553 H         1 UNK         0.1329 
     78 H78       -78.2487   31.3399  -70.6688 H         1 UNK         0.1335 
     79 H79       -76.0759   31.8797  -71.4023 H         1 UNK         0.0680 
     80 H80       -74.8694   30.8589  -70.6515 H         1 UNK         0.0680 
     81 H81       -74.5207   32.8995  -72.8622 H         1 UNK         0.1032 
     82 H82       -74.1537   32.2960  -74.4366 H         1 UNK         0.1032 
     83 H83       -72.1763   33.0970  -73.3142 H         1 UNK         0.0461 
     84 H84       -70.5441   30.8514  -71.7267 H         1 UNK         0.3453 
     85 H85       -70.8870   31.3973  -70.1026 H         1 UNK         0.3453 
     86 H86       -71.2131   31.7888  -74.6835 H         1 UNK         0.2984 
     87 H87       -70.6214   29.9664  -75.9106 H         1 UNK         0.0554 
     88 H88       -68.2932   29.3138  -75.2696 H         1 UNK         0.0847 
     89 H89       -68.7858   29.1513  -73.5844 H         1 UNK         0.0847 
     90 H90       -68.8122   30.7248  -74.3666 H         1 UNK         0.0847 
     91 H91       -70.0995   27.3663  -74.6438 H         1 UNK         0.3141 
     92 H92       -70.7365   25.5333  -76.3242 H         1 UNK         0.0743 
     93 H93       -72.9017   25.8742  -74.1717 H         1 UNK         0.0784 
     94 H94       -72.1858   24.3263  -74.6088 H         1 UNK         0.0784 
     95 H95       -71.1898   25.5853  -73.9036 H         1 UNK         0.0784 
     96 H96       -73.6944   25.8007  -76.6438 H         1 UNK         0.3213 
     97 H97       -73.6771   24.8113  -79.9185 H         1 UNK         0.0855 
     98 H98       -74.1706   22.5590  -77.8954 H         1 UNK         0.0814 
     99 H99       -73.1208   22.4601  -79.3025 H         1 UNK         0.0814 
    100 H100      -74.8532   22.6496  -79.5183 H         1 UNK         0.0814 
    101 H101      -75.6876   24.4930  -77.8480 H         1 UNK         0.3105 
    102 H102      -76.5653   27.9018  -77.6325 H         1 UNK         0.0547 
    103 H103      -77.8360   27.2183  -79.6733 H         1 UNK         0.0837 
    104 H104      -78.1496   25.6391  -78.9638 H         1 UNK         0.0837 
    105 H105      -78.8347   27.0893  -78.2323 H         1 UNK         0.0837 
    106 H106      -77.8074   25.6583  -76.4753 H         1 UNK         0.3020 
    107 H107      -75.5844   25.2331  -73.6830 H         1 UNK         0.1245 
    108 H108      -78.4479   26.2299  -74.0394 H         1 UNK         0.0781 
    109 H109      -77.1978   27.0864  -73.2087 H         1 UNK         0.0781 
    110 H110      -76.0149   25.9055  -70.8082 H         1 UNK         0.0836 
    111 H111      -77.3137   25.6314  -69.6740 H         1 UNK         0.0836 
    112 H112      -77.9084   23.8470  -74.7297 H         1 UNK         0.3022 
    113 H113      -76.0762   21.2980  -76.3850 H         1 UNK         0.0747 
    114 H114      -77.2564   19.7870  -74.8023 H         1 UNK         0.0793 
    115 H115      -75.8985   20.5621  -74.0044 H         1 UNK         0.0793 
    116 H116      -77.5328   21.1272  -73.6880 H         1 UNK         0.0793 
    117 H117      -78.8553   21.6158  -75.7354 H         1 UNK         0.3047 
    118 H118      -79.7302   23.6114  -78.5542 H         1 UNK         0.0822 
    119 H119      -81.2904   21.7243  -78.9206 H         1 UNK         0.0807 
    120 H120      -80.3383   20.6852  -77.8597 H         1 UNK         0.0807 
    121 H121      -79.6647   21.2511  -79.3819 H         1 UNK         0.0807 
    122 H122      -81.3573   22.5484  -76.4997 H         1 UNK         0.2946 
    123 H123      -82.3784   24.4122  -75.1247 H         1 UNK         0.1144 
    124 H124      -81.7334   23.5537  -72.8225 H         1 UNK         0.0793 
    125 H125      -80.0516   23.4524  -73.3303 H         1 UNK         0.0793 
    126 H126      -81.2639   22.4094  -74.0590 H         1 UNK         0.0793 
    127 H127      -80.3408   26.3089  -74.7214 H         1 UNK         0.2896 
@<TRIPOS>BOND
     1    1    2 1    
     2    1   67 1    
     3    1   68 1    
     4    1   69 1    
     5    2    3 2    
     6    2    4 am   BACKBONE|DICT|INTERRES
     7    4    5 1    
     8    4   70 1    
     9    5    6 1    
    10    5   65 1    
    11    5   71 1    
    12    6    7 1    
    13    6   72 1    
    14    6   73 1    
    15    7    8 1    
    16    8    9 1    
    17    8   74 1    
    18    8   75 1    
    19    9   10 ar   
    20    9   14 ar   
    21   10   11 ar   
    22   10   76 1    
    23   11   12 ar   
    24   11   48 1    
    25   12   13 ar   
    26   12   77 1    
    27   13   14 ar   
    28   13   15 1    
    29   14   78 1    
    30   15   16 1    
    31   15   79 1    
    32   15   80 1    
    33   16   17 1    
    34   17   18 1    
    35   17   81 1    
    36   17   82 1    
    37   18   19 1    
    38   18   22 1    
    39   18   83 1    
    40   19   20 am   BACKBONE|DICT|INTERRES
    41   19   21 2    
    42   20   84 1    
    43   20   85 1    
    44   22   23 am   BACKBONE|DICT|INTERRES
    45   22   86 1    
    46   23   24 2    
    47   23   25 1    
    48   25   26 1    
    49   25   27 1    
    50   25   87 1    
    51   26   88 1    
    52   26   89 1    
    53   26   90 1    
    54   27   28 am   BACKBONE|DICT|INTERRES
    55   27   91 1    
    56   28   29 2    
    57   28   30 1    
    58   30   31 1    
    59   30   32 1    
    60   30   92 1    
    61   31   93 1    
    62   31   94 1    
    63   31   95 1    
    64   32   33 am   BACKBONE|DICT|INTERRES
    65   32   96 1    
    66   33   34 2    
    67   33   35 1    
    68   35   36 1    
    69   35   37 1    
    70   35   97 1    
    71   36   98 1    
    72   36   99 1    
    73   36  100 1    
    74   37   38 am   BACKBONE|DICT|INTERRES
    75   37  101 1    
    76   38   39 2    
    77   38   40 1    
    78   40   41 1    
    79   40   42 1    
    80   40  102 1    
    81   41  103 1    
    82   41  104 1    
    83   41  105 1    
    84   42   43 am   BACKBONE|DICT|INTERRES
    85   42  106 1    
    86   43   44 2    
    87   43   45 1    
    88   45   46 1    
    89   45   49 1    
    90   45  107 1    
    91   46   47 1    
    92   46  108 1    
    93   46  109 1    
    94   47   48 1    
    95   48  110 1    
    96   48  111 1    
    97   49   50 am   BACKBONE|DICT|INTERRES
    98   49  112 1    
    99   50   51 2    
   100   50   52 1    
   101   52   53 1    
   102   52   54 1    
   103   52  113 1    
   104   53  114 1    
   105   53  115 1    
   106   53  116 1    
   107   54   55 am   BACKBONE|DICT|INTERRES
   108   54  117 1    
   109   55   56 2    
   110   55   57 1    
   111   57   58 1    
   112   57   59 1    
   113   57  118 1    
   114   58  119 1    
   115   58  120 1    
   116   58  121 1    
   117   59   60 am   BACKBONE|DICT|INTERRES
   118   59  122 1    
   119   60   61 2    
   120   60   62 1    
   121   62   63 1    
   122   62   64 1    
   123   62  123 1    
   124   63  124 1    
   125   63  125 1    
   126   63  126 1    
   127   64   65 am   BACKBONE|DICT|INTERRES
   128   64  127 1    
   129   65   66 2    
@<TRIPOS>SUBSTRUCTURE
     1 UNK         1 GROUP             0       ****    0 ROOT    
