@<TRIPOS>MOLECULE
3R135
127   129    1
SMALL
USER_CHARGES


@<TRIPOS>ATOM
      1 CA        -79.2050   30.3291  -75.7725 C.3       0 UNK        -0.1998 
      2 C         -80.1612   29.4048  -75.0335 C.2       0 UNK         0.4909 
      3 O         -81.3290   29.3030  -75.4109 O.2       0 UNK        -0.5240 
      4 N         -79.6635   28.7175  -73.9981 N.am      1 UNK        -0.4739 
      5 CA        -80.3632   27.7974  -73.0841 C.3       1 UNK         0.0864 
      6 C6        -81.5462   28.4238  -72.2938 C.3       11 UNK        -0.0881 
      7 S7        -81.1608   30.0200  -71.4926 S.3       11 UNK        -0.2682 
      8 C8        -80.3630   29.4979  -69.9386 C.3       11 UNK         0.0289 
      9 C9        -78.9719   28.9263  -70.1769 C.ar      11 UNK        -0.0687 
     10 C10       -78.6786   27.6032  -69.8315 C.ar      11 UNK        -0.0823 
     11 C11       -77.4115   27.0652  -70.0818 C.ar      11 UNK        -0.0830 
     12 C12       -76.4282   27.8730  -70.6672 C.ar      11 UNK        -0.1021 
     13 C13       -76.7095   29.1968  -71.0132 C.ar      11 UNK        -0.0753 
     14 C14       -77.9794   29.7194  -70.7597 C.ar      11 UNK        -0.0933 
     15 C15       -75.6446   30.0715  -71.6516 C.3       11 UNK         0.0166 
     16 S16       -75.7069   29.9707  -73.4692 S.3       11 UNK        -0.2615 
     17 C17       -75.0584   31.6180  -73.9318 C.3       11 UNK        -0.0865 
     18 CA        -73.5324   31.6816  -74.2097 C.3       10 UNK         0.0862 
     19 C         -72.6760   31.4857  -72.9265 C.2       10 UNK         0.5551 
     20 N         -72.6298   32.4888  -72.0600 N.am      10 UNK        -0.7319 
     21 O         -72.0836   30.4345  -72.6912 O.2       10 UNK        -0.5018 
     22 N         -73.1445   30.7909  -75.3101 N.am      10 UNK        -0.4509 
     23 C         -72.0309   30.9259  -76.0407 C.2       10 UNK         0.4899 
     24 O         -71.2347   31.8589  -75.9179 O.2       10 UNK        -0.4839 
     25 CA        -71.7887   29.8303  -77.0927 C.3       9 UNK         0.0222 
     26 CB        -70.4966   30.0348  -77.9134 C.3       9 UNK        -0.1966 
     27 N         -71.8481   28.4900  -76.5010 N.am      9 UNK        -0.4218 
     28 C         -71.0081   27.9484  -75.6018 C.2       9 UNK         0.5020 
     29 O         -70.0005   28.5137  -75.1748 O.2       9 UNK        -0.5274 
     30 CA        -71.3330   26.5336  -75.0751 C.3       8 UNK         0.0270 
     31 CB        -71.7551   26.6032  -73.5975 C.3       8 UNK        -0.1976 
     32 N         -72.3765   25.8416  -75.8383 N.am      8 UNK        -0.4313 
     33 C         -72.2299   25.3755  -77.0894 C.2       8 UNK         0.5041 
     34 O         -71.1503   25.3559  -77.6815 O.2       8 UNK        -0.5577 
     35 CA        -73.4927   24.8870  -77.8313 C.3       7 UNK         0.0284 
     36 CB        -73.5404   23.3506  -77.8539 C.3       7 UNK        -0.1958 
     37 N         -74.7546   25.3901  -77.2804 N.am      7 UNK        -0.4454 
     38 C         -75.0970   26.6773  -77.1212 C.2       7 UNK         0.5089 
     39 O         -74.4198   27.6212  -77.5279 O.2       7 UNK        -0.5125 
     40 CA        -76.3666   26.9613  -76.2983 C.3       6 UNK         0.0408 
     41 CB        -77.5419   27.2845  -77.2324 C.3       6 UNK        -0.1791 
     42 N         -76.7461   25.8687  -75.3916 N.am      6 UNK        -0.4762 
     43 C         -75.9863   25.3739  -74.4006 C.2       6 UNK         0.5007 
     44 O         -74.8572   25.7962  -74.1506 O.2       6 UNK        -0.5032 
     45 CA        -76.5239   24.1650  -73.6127 C.3       5 UNK         0.0783 
     46 C46       -77.2670   24.5892  -72.3191 C.3       11 UNK        -0.0857 
     47 S47       -76.1209   24.7035  -70.9052 S.3       11 UNK        -0.2512 
     48 C48       -77.1174   25.6211  -69.6847 C.3       11 UNK         0.0225 
     49 N         -77.3439   23.2855  -74.4565 N.am      5 UNK        -0.4615 
     50 C         -77.0804   21.9869  -74.6677 C.2       4 UNK         0.5053 
     51 O         -76.1014   21.4048  -74.1994 O.2       4 UNK        -0.5105 
     52 CA        -78.0664   21.1707  -75.5264 C.3       4 UNK         0.0263 
     53 CB        -79.0235   20.3752  -74.6235 C.3       4 UNK        -0.1981 
     54 N         -78.8548   21.9693  -76.4638 N.am      4 UNK        -0.4224 
     55 C         -78.3668   22.6049  -77.5373 C.2       3 UNK         0.4895 
     56 O         -77.1890   22.5502  -77.8919 O.2       3 UNK        -0.5091 
     57 CA        -79.3547   23.4795  -78.3350 C.3       3 UNK         0.0250 
     58 CB        -79.9186   22.6917  -79.5285 C.3       3 UNK        -0.1996 
     59 N         -80.4705   24.0487  -77.5599 N.am      3 UNK        -0.4254 
     60 C         -80.3450   24.7781  -76.4420 C.2       2 UNK         0.5004 
     61 O         -79.2660   24.9487  -75.8733 O.2       2 UNK        -0.5226 
     62 CA        -81.6290   25.4085  -75.8745 C.3       2 UNK         0.0269 
     63 CB        -82.5459   24.3453  -75.2354 C.3       2 UNK        -0.1926 
     64 N         -81.3364   26.5085  -74.9426 N.am      2 UNK        -0.4687 
     65 C         -80.7759   26.4562  -73.7247 C.2       1 UNK         0.5165 
     66 O         -80.5582   25.4140  -73.1054 O.2       1 UNK        -0.5079 
     67 H67       -78.1799   30.2242  -75.4174 H         1 UNK         0.0900 
     68 H68       -79.5078   31.3667  -75.6354 H         1 UNK         0.0900 
     69 H69       -79.2168   30.1085  -76.8394 H         1 UNK         0.0900 
     70 H70       -78.6879   28.8506  -73.7689 H         1 UNK         0.2959 
     71 H71       -79.5987   27.5212  -72.3615 H         1 UNK         0.1079 
     72 H72       -81.9024   27.7295  -71.5303 H         1 UNK         0.0837 
     73 H73       -82.3939   28.5931  -72.9603 H         1 UNK         0.0837 
     74 H74       -80.2787   30.3632  -69.2798 H         1 UNK         0.0685 
     75 H75       -81.0046   28.7808  -69.4242 H         1 UNK         0.0685 
     76 H76       -79.4430   26.9876  -69.3766 H         1 UNK         0.1434 
     77 H77       -75.4425   27.4720  -70.8604 H         1 UNK         0.1329 
     78 H78       -78.2036   30.7420  -71.0317 H         1 UNK         0.1335 
     79 H79       -74.6529   29.7712  -71.3099 H         1 UNK         0.0680 
     80 H80       -75.7822   31.1019  -71.3214 H         1 UNK         0.0680 
     81 H81       -75.5909   31.9285  -74.8320 H         1 UNK         0.1032 
     82 H82       -75.3410   32.3550  -73.1785 H         1 UNK         0.1032 
     83 H83       -73.3278   32.6979  -74.5534 H         1 UNK         0.0461 
     84 H84       -73.1076   33.3584  -72.2378 H         1 UNK         0.3453 
     85 H85       -72.0889   32.3799  -71.2165 H         1 UNK         0.3453 
     86 H86       -73.7235   29.9745  -75.4402 H         1 UNK         0.2984 
     87 H87       -72.6253   29.8873  -77.7907 H         1 UNK         0.0554 
     88 H88       -70.3683   29.2455  -78.6540 H         1 UNK         0.0847 
     89 H89       -69.6075   30.0506  -77.2825 H         1 UNK         0.0847 
     90 H90       -70.5256   30.9829  -78.4515 H         1 UNK         0.0847 
     91 H91       -72.6609   27.9476  -76.7811 H         1 UNK         0.3141 
     92 H92       -70.4173   25.9424  -75.1417 H         1 UNK         0.0743 
     93 H93       -71.9740   25.6136  -73.1961 H         1 UNK         0.0784 
     94 H94       -70.9626   27.0347  -72.9846 H         1 UNK         0.0784 
     95 H95       -72.6415   27.2250  -73.4615 H         1 UNK         0.0784 
     96 H96       -73.2938   25.8020  -75.4014 H         1 UNK         0.3213 
     97 H97       -73.4203   25.2465  -78.8598 H         1 UNK         0.0855 
     98 H98       -72.6279   22.9367  -78.2855 H         1 UNK         0.0814 
     99 H99       -74.3744   22.9873  -78.4552 H         1 UNK         0.0814 
    100 H100      -73.6449   22.9352  -76.8505 H         1 UNK         0.0814 
    101 H101      -75.3947   24.6961  -76.9208 H         1 UNK         0.3105 
    102 H102      -76.1673   27.8397  -75.6820 H         1 UNK         0.0547 
    103 H103      -77.3166   28.1475  -77.8603 H         1 UNK         0.0837 
    104 H104      -77.7704   26.4488  -77.8942 H         1 UNK         0.0837 
    105 H105      -78.4446   27.5182  -76.6696 H         1 UNK         0.0837 
    106 H106      -77.6788   25.4804  -75.5397 H         1 UNK         0.3020 
    107 H107      -75.6276   23.6143  -73.3179 H         1 UNK         0.1245 
    108 H108      -78.0260   23.8511  -72.0538 H         1 UNK         0.0781 
    109 H109      -77.8038   25.5307  -72.4507 H         1 UNK         0.0781 
    110 H110      -76.5825   25.6279  -68.7343 H         1 UNK         0.0836 
    111 H111      -78.0438   25.0705  -69.5128 H         1 UNK         0.0836 
    112 H112      -78.1562   23.7078  -74.8973 H         1 UNK         0.3022 
    113 H113      -77.4765   20.4596  -76.1090 H         1 UNK         0.0747 
    114 H114      -79.6725   19.7230  -75.2083 H         1 UNK         0.0793 
    115 H115      -78.4695   19.7400  -73.9306 H         1 UNK         0.0793 
    116 H116      -79.6559   21.0338  -74.0266 H         1 UNK         0.0793 
    117 H117      -79.8345   22.0857  -76.2508 H         1 UNK         0.3047 
    118 H118      -78.7799   24.3204  -78.7277 H         1 UNK         0.0822 
    119 H119      -80.5444   21.8597  -79.2033 H         1 UNK         0.0807 
    120 H120      -79.1147   22.2759  -80.1381 H         1 UNK         0.0807 
    121 H121      -80.5170   23.3292  -80.1797 H         1 UNK         0.0807 
    122 H122      -81.3912   23.9358  -77.9601 H         1 UNK         0.2946 
    123 H123      -82.1625   25.8624  -76.7113 H         1 UNK         0.1144 
    124 H124      -82.9050   23.6369  -75.9826 H         1 UNK         0.0793 
    125 H125      -82.0314   23.7663  -74.4678 H         1 UNK         0.0793 
    126 H126      -83.4236   24.8021  -74.7781 H         1 UNK         0.0793 
    127 H127      -81.4530   27.4452  -75.3236 H         1 UNK         0.2896 
@<TRIPOS>BOND
     1    1    2 1    
     2    1   67 1    
     3    1   68 1    
     4    1   69 1    
     5    2    3 2    
     6    2    4 am   BACKBONE|DICT|INTERRES
     7    4    5 1    
     8    4   70 1    
     9    5    6 1    
    10    5   65 1    
    11    5   71 1    
    12    6    7 1    
    13    6   72 1    
    14    6   73 1    
    15    7    8 1    
    16    8    9 1    
    17    8   74 1    
    18    8   75 1    
    19    9   10 ar   
    20    9   14 ar   
    21   10   11 ar   
    22   10   76 1    
    23   11   12 ar   
    24   11   48 1    
    25   12   13 ar   
    26   12   77 1    
    27   13   14 ar   
    28   13   15 1    
    29   14   78 1    
    30   15   16 1    
    31   15   79 1    
    32   15   80 1    
    33   16   17 1    
    34   17   18 1    
    35   17   81 1    
    36   17   82 1    
    37   18   19 1    
    38   18   22 1    
    39   18   83 1    
    40   19   20 am   BACKBONE|DICT|INTERRES
    41   19   21 2    
    42   20   84 1    
    43   20   85 1    
    44   22   23 am   BACKBONE|DICT|INTERRES
    45   22   86 1    
    46   23   24 2    
    47   23   25 1    
    48   25   26 1    
    49   25   27 1    
    50   25   87 1    
    51   26   88 1    
    52   26   89 1    
    53   26   90 1    
    54   27   28 am   BACKBONE|DICT|INTERRES
    55   27   91 1    
    56   28   29 2    
    57   28   30 1    
    58   30   31 1    
    59   30   32 1    
    60   30   92 1    
    61   31   93 1    
    62   31   94 1    
    63   31   95 1    
    64   32   33 am   BACKBONE|DICT|INTERRES
    65   32   96 1    
    66   33   34 2    
    67   33   35 1    
    68   35   36 1    
    69   35   37 1    
    70   35   97 1    
    71   36   98 1    
    72   36   99 1    
    73   36  100 1    
    74   37   38 am   BACKBONE|DICT|INTERRES
    75   37  101 1    
    76   38   39 2    
    77   38   40 1    
    78   40   41 1    
    79   40   42 1    
    80   40  102 1    
    81   41  103 1    
    82   41  104 1    
    83   41  105 1    
    84   42   43 am   BACKBONE|DICT|INTERRES
    85   42  106 1    
    86   43   44 2    
    87   43   45 1    
    88   45   46 1    
    89   45   49 1    
    90   45  107 1    
    91   46   47 1    
    92   46  108 1    
    93   46  109 1    
    94   47   48 1    
    95   48  110 1    
    96   48  111 1    
    97   49   50 am   BACKBONE|DICT|INTERRES
    98   49  112 1    
    99   50   51 2    
   100   50   52 1    
   101   52   53 1    
   102   52   54 1    
   103   52  113 1    
   104   53  114 1    
   105   53  115 1    
   106   53  116 1    
   107   54   55 am   BACKBONE|DICT|INTERRES
   108   54  117 1    
   109   55   56 2    
   110   55   57 1    
   111   57   58 1    
   112   57   59 1    
   113   57  118 1    
   114   58  119 1    
   115   58  120 1    
   116   58  121 1    
   117   59   60 am   BACKBONE|DICT|INTERRES
   118   59  122 1    
   119   60   61 2    
   120   60   62 1    
   121   62   63 1    
   122   62   64 1    
   123   62  123 1    
   124   63  124 1    
   125   63  125 1    
   126   63  126 1    
   127   64   65 am   BACKBONE|DICT|INTERRES
   128   64  127 1    
   129   65   66 2    
@<TRIPOS>SUBSTRUCTURE
     1 UNK         1 GROUP             0       ****    0 ROOT    
