@<TRIPOS>MOLECULE
3R135
127   129    1
SMALL
USER_CHARGES


@<TRIPOS>ATOM
      1 CA        -77.6492   26.4450  -69.6827 C.3       0 UNK        -0.1998 
      2 C         -79.0956   26.0616  -69.9340 C.2       0 UNK         0.4909 
      3 O         -79.7657   25.5673  -69.0267 O.2       0 UNK        -0.5240 
      4 N         -79.5754   26.2704  -71.1622 N.am      1 UNK        -0.4739 
      5 CA        -80.8951   25.8550  -71.6228 C.3       1 UNK         0.0864 
      6 C6        -81.9979   26.9004  -71.3055 C.3       11 UNK        -0.0881 
      7 S7        -81.8733   28.4835  -72.2116 S.3       11 UNK        -0.2682 
      8 C8        -80.9062   29.5396  -71.0752 C.3       11 UNK         0.0289 
      9 C9        -79.5479   29.9435  -71.6444 C.ar      11 UNK        -0.0687 
     10 C10       -79.4293   30.3741  -72.9710 C.ar      11 UNK        -0.0823 
     11 C11       -78.1880   30.7424  -73.5010 C.ar      11 UNK        -0.0830 
     12 C12       -77.0665   30.7349  -72.6684 C.ar      11 UNK        -0.1021 
     13 C13       -77.1720   30.3438  -71.3308 C.ar      11 UNK        -0.0753 
     14 C14       -78.4117   29.9360  -70.8276 C.ar      11 UNK        -0.0933 
     15 C15       -75.9503   30.4103  -70.4248 C.3       11 UNK         0.0166 
     16 S16       -75.1577   28.7921  -70.1611 S.3       11 UNK        -0.2615 
     17 C17       -74.7408   28.2481  -71.8541 C.3       11 UNK        -0.0865 
     18 CA        -73.5064   28.9766  -72.4411 C.3       10 UNK         0.0862 
     19 C         -72.1851   28.5399  -71.7495 C.2       10 UNK         0.5551 
     20 N         -71.5402   29.4312  -71.0090 N.am      10 UNK        -0.7319 
     21 O         -71.7644   27.3901  -71.8550 O.2       10 UNK        -0.5018 
     22 N         -73.4354   28.7714  -73.8904 N.am      10 UNK        -0.4509 
     23 C         -72.6694   29.4873  -74.7242 C.2       10 UNK         0.4899 
     24 O         -72.0589   30.5051  -74.3931 O.2       10 UNK        -0.4839 
     25 CA        -72.5666   28.9558  -76.1662 C.3       9 UNK         0.0222 
     26 CB        -71.4612   29.6399  -76.9980 C.3       9 UNK        -0.1966 
     27 N         -72.4316   27.4957  -76.1933 N.am      9 UNK        -0.4218 
     28 C         -71.4359   26.7538  -75.6809 C.2       9 UNK         0.5020 
     29 O         -70.3989   27.2156  -75.2036 O.2       9 UNK        -0.5274 
     30 CA        -71.6351   25.2284  -75.6928 C.3       8 UNK         0.0270 
     31 CB        -72.0688   24.7242  -74.3055 C.3       8 UNK        -0.1976 
     32 N         -72.6162   24.8060  -76.6963 N.am      8 UNK        -0.4313 
     33 C         -72.3181   24.5976  -77.9853 C.2       8 UNK         0.5041 
     34 O         -71.1814   24.6787  -78.4528 O.2       8 UNK        -0.5577 
     35 CA        -73.4916   24.2496  -78.9086 C.3       7 UNK         0.0284 
     36 CB        -73.9982   22.8214  -78.6426 C.3       7 UNK        -0.1958 
     37 N         -74.6009   25.1972  -78.7854 N.am      7 UNK        -0.4454 
     38 C         -74.6049   26.4368  -79.2940 C.2       7 UNK         0.5089 
     39 O         -73.6305   26.9580  -79.8359 O.2       7 UNK        -0.5125 
     40 CA        -75.9246   27.2178  -79.2170 C.3       6 UNK         0.0408 
     41 CB        -76.9424   26.6474  -80.2192 C.3       6 UNK        -0.1791 
     42 N         -76.5092   27.1918  -77.8749 N.am      6 UNK        -0.4762 
     43 C         -76.5627   28.2468  -77.0477 C.2       6 UNK         0.5007 
     44 O         -76.0503   29.3365  -77.3041 O.2       6 UNK        -0.5032 
     45 CA        -77.3042   28.0663  -75.7009 C.3       5 UNK         0.0783 
     46 C46       -78.7838   28.5228  -75.7938 C.3       11 UNK        -0.0857 
     47 S47       -79.0949   30.2905  -76.1476 S.3       11 UNK        -0.2512 
     48 C48       -78.0336   31.1832  -74.9556 C.3       11 UNK         0.0225 
     49 N         -77.2448   26.6956  -75.1855 N.am      5 UNK        -0.4615 
     50 C         -76.1289   26.0239  -74.8806 C.2       4 UNK         0.5053 
     51 O         -75.0000   26.5126  -74.9340 O.2       4 UNK        -0.5105 
     52 CA        -76.2971   24.5423  -74.5010 C.3       4 UNK         0.0263 
     53 CB        -76.5100   24.4024  -72.9860 C.3       4 UNK        -0.1981 
     54 N         -77.3853   23.8576  -75.2140 N.am      4 UNK        -0.4224 
     55 C         -77.5144   23.7531  -76.5448 C.2       3 UNK         0.4895 
     56 O         -76.7335   24.2670  -77.3435 O.2       3 UNK        -0.5091 
     57 CA        -78.7337   22.9941  -77.0962 C.3       3 UNK         0.0250 
     58 CB        -78.5472   21.4681  -76.9866 C.3       3 UNK        -0.1996 
     59 N         -80.0115   23.4491  -76.5308 N.am      3 UNK        -0.4254 
     60 C         -80.4533   23.3177  -75.2735 C.2       2 UNK         0.5004 
     61 O         -79.8718   22.6708  -74.3978 O.2       2 UNK        -0.5226 
     62 CA        -81.7486   24.0740  -74.9293 C.3       2 UNK         0.0269 
     63 CB        -82.9665   23.1465  -75.0683 C.3       2 UNK        -0.1926 
     64 N         -81.7195   24.6326  -73.5739 N.am      2 UNK        -0.4687 
     65 C         -80.7901   25.4817  -73.1114 C.2       1 UNK         0.5165 
     66 O         -79.8742   25.9463  -73.8013 O.2       1 UNK        -0.5079 
     67 H67       -77.5973   27.2911  -68.9984 H         1 UNK         0.0900 
     68 H68       -77.1071   25.6109  -69.2385 H         1 UNK         0.0900 
     69 H69       -77.1456   26.7179  -70.6092 H         1 UNK         0.0900 
     70 H70       -78.9982   26.6641  -71.8946 H         1 UNK         0.2959 
     71 H71       -81.1524   24.9303  -71.1004 H         1 UNK         0.1079 
     72 H72       -82.9750   26.4742  -71.5385 H         1 UNK         0.0837 
     73 H73       -82.0268   27.0961  -70.2327 H         1 UNK         0.0837 
     74 H74       -80.7816   29.0367  -70.1154 H         1 UNK         0.0685 
     75 H75       -81.4785   30.4458  -70.8737 H         1 UNK         0.0685 
     76 H76       -80.3087   30.4081  -73.5987 H         1 UNK         0.1434 
     77 H77       -76.1065   31.0457  -73.0584 H         1 UNK         0.1329 
     78 H78       -78.4925   29.6335  -69.7926 H         1 UNK         0.1335 
     79 H79       -76.2448   30.8125  -69.4543 H         1 UNK         0.0680 
     80 H80       -75.2153   31.1102  -70.8244 H         1 UNK         0.0680 
     81 H81       -75.6121   28.3924  -72.4928 H         1 UNK         0.1032 
     82 H82       -74.5756   27.1691  -71.8401 H         1 UNK         0.1032 
     83 H83       -73.6448   30.0480  -72.2852 H         1 UNK         0.0461 
     84 H84       -70.6890   29.1583  -70.5436 H         1 UNK         0.3453 
     85 H85       -71.8841   30.3738  -70.9141 H         1 UNK         0.3453 
     86 H86       -73.8840   27.9324  -74.2470 H         1 UNK         0.2984 
     87 H87       -73.5188   29.1822  -76.6443 H         1 UNK         0.0554 
     88 H88       -71.6457   30.7114  -77.0829 H         1 UNK         0.0847 
     89 H89       -71.4214   29.2370  -78.0101 H         1 UNK         0.0847 
     90 H90       -70.4759   29.5165  -76.5476 H         1 UNK         0.0847 
     91 H91       -73.2499   26.9957  -76.5109 H         1 UNK         0.3141 
     92 H92       -70.6690   24.7737  -75.9235 H         1 UNK         0.0743 
     93 H93       -71.3198   24.9753  -73.5529 H         1 UNK         0.0784 
     94 H94       -73.0076   25.1703  -73.9794 H         1 UNK         0.0784 
     95 H95       -72.1878   23.6408  -74.2943 H         1 UNK         0.0784 
     96 H96       -73.5773   24.7220  -76.3980 H         1 UNK         0.3213 
     97 H97       -73.1262   24.2878  -79.9374 H         1 UNK         0.0855 
     98 H98       -74.4034   22.7108  -77.6361 H         1 UNK         0.0814 
     99 H99       -73.1917   22.0951  -78.7515 H         1 UNK         0.0814 
    100 H100      -74.7816   22.5429  -79.3477 H         1 UNK         0.0814 
    101 H101      -75.4444   24.8490  -78.3286 H         1 UNK         0.3105 
    102 H102      -75.7122   28.2454  -79.5197 H         1 UNK         0.0547 
    103 H103      -77.2258   25.6227  -79.9754 H         1 UNK         0.0837 
    104 H104      -76.5341   26.6416  -81.2308 H         1 UNK         0.0837 
    105 H105      -77.8516   27.2481  -80.2419 H         1 UNK         0.0837 
    106 H106      -76.8830   26.3036  -77.5601 H         1 UNK         0.3020 
    107 H107      -76.7857   28.6880  -74.9698 H         1 UNK         0.1245 
    108 H108      -79.2907   28.3004  -74.8541 H         1 UNK         0.0781 
    109 H109      -79.3101   27.9352  -76.5483 H         1 UNK         0.0781 
    110 H110      -78.2663   32.2468  -75.0184 H         1 UNK         0.0836 
    111 H111      -76.9959   31.0830  -75.2775 H         1 UNK         0.0836 
    112 H112      -78.1358   26.2351  -75.0357 H         1 UNK         0.3022 
    113 H113      -75.3678   24.0337  -74.7638 H         1 UNK         0.0747 
    114 H114      -77.4537   24.8475  -72.6699 H         1 UNK         0.0793 
    115 H115      -76.5173   23.3554  -72.6826 H         1 UNK         0.0793 
    116 H116      -75.7110   24.8939  -72.4291 H         1 UNK         0.0793 
    117 H117      -78.1120   23.4250  -74.6492 H         1 UNK         0.3047 
    118 H118      -78.7879   23.2320  -78.1601 H         1 UNK         0.0822 
    119 H119      -79.3911   20.9339  -77.4233 H         1 UNK         0.0807 
    120 H120      -78.4388   21.1359  -75.9540 H         1 UNK         0.0807 
    121 H121      -77.6510   21.1498  -77.5210 H         1 UNK         0.0807 
    122 H122      -80.5711   24.0050  -77.1634 H         1 UNK         0.2946 
    123 H123      -81.8611   24.9109  -75.6223 H         1 UNK         0.1144 
    124 H124      -83.8977   23.6803  -74.8770 H         1 UNK         0.0793 
    125 H125      -82.9124   22.3046  -74.3766 H         1 UNK         0.0793 
    126 H126      -83.0326   22.7352  -76.0766 H         1 UNK         0.0793 
    127 H127      -82.4216   24.2871  -72.9361 H         1 UNK         0.2896 
@<TRIPOS>BOND
     1    1    2 1    
     2    1   67 1    
     3    1   68 1    
     4    1   69 1    
     5    2    3 2    
     6    2    4 am   BACKBONE|DICT|INTERRES
     7    4    5 1    
     8    4   70 1    
     9    5    6 1    
    10    5   65 1    
    11    5   71 1    
    12    6    7 1    
    13    6   72 1    
    14    6   73 1    
    15    7    8 1    
    16    8    9 1    
    17    8   74 1    
    18    8   75 1    
    19    9   10 ar   
    20    9   14 ar   
    21   10   11 ar   
    22   10   76 1    
    23   11   12 ar   
    24   11   48 1    
    25   12   13 ar   
    26   12   77 1    
    27   13   14 ar   
    28   13   15 1    
    29   14   78 1    
    30   15   16 1    
    31   15   79 1    
    32   15   80 1    
    33   16   17 1    
    34   17   18 1    
    35   17   81 1    
    36   17   82 1    
    37   18   19 1    
    38   18   22 1    
    39   18   83 1    
    40   19   20 am   BACKBONE|DICT|INTERRES
    41   19   21 2    
    42   20   84 1    
    43   20   85 1    
    44   22   23 am   BACKBONE|DICT|INTERRES
    45   22   86 1    
    46   23   24 2    
    47   23   25 1    
    48   25   26 1    
    49   25   27 1    
    50   25   87 1    
    51   26   88 1    
    52   26   89 1    
    53   26   90 1    
    54   27   28 am   BACKBONE|DICT|INTERRES
    55   27   91 1    
    56   28   29 2    
    57   28   30 1    
    58   30   31 1    
    59   30   32 1    
    60   30   92 1    
    61   31   93 1    
    62   31   94 1    
    63   31   95 1    
    64   32   33 am   BACKBONE|DICT|INTERRES
    65   32   96 1    
    66   33   34 2    
    67   33   35 1    
    68   35   36 1    
    69   35   37 1    
    70   35   97 1    
    71   36   98 1    
    72   36   99 1    
    73   36  100 1    
    74   37   38 am   BACKBONE|DICT|INTERRES
    75   37  101 1    
    76   38   39 2    
    77   38   40 1    
    78   40   41 1    
    79   40   42 1    
    80   40  102 1    
    81   41  103 1    
    82   41  104 1    
    83   41  105 1    
    84   42   43 am   BACKBONE|DICT|INTERRES
    85   42  106 1    
    86   43   44 2    
    87   43   45 1    
    88   45   46 1    
    89   45   49 1    
    90   45  107 1    
    91   46   47 1    
    92   46  108 1    
    93   46  109 1    
    94   47   48 1    
    95   48  110 1    
    96   48  111 1    
    97   49   50 am   BACKBONE|DICT|INTERRES
    98   49  112 1    
    99   50   51 2    
   100   50   52 1    
   101   52   53 1    
   102   52   54 1    
   103   52  113 1    
   104   53  114 1    
   105   53  115 1    
   106   53  116 1    
   107   54   55 am   BACKBONE|DICT|INTERRES
   108   54  117 1    
   109   55   56 2    
   110   55   57 1    
   111   57   58 1    
   112   57   59 1    
   113   57  118 1    
   114   58  119 1    
   115   58  120 1    
   116   58  121 1    
   117   59   60 am   BACKBONE|DICT|INTERRES
   118   59  122 1    
   119   60   61 2    
   120   60   62 1    
   121   62   63 1    
   122   62   64 1    
   123   62  123 1    
   124   63  124 1    
   125   63  125 1    
   126   63  126 1    
   127   64   65 am   BACKBONE|DICT|INTERRES
   128   64  127 1    
   129   65   66 2    
@<TRIPOS>SUBSTRUCTURE
     1 UNK         1 GROUP             0       ****    0 ROOT    
