@<TRIPOS>MOLECULE
3R135
127   129    1
SMALL
USER_CHARGES


@<TRIPOS>ATOM
      1 CA        -85.6687   28.5691  -73.8206 C.3       0 UNK        -0.1998 
      2 C         -84.5523   27.5532  -74.0100 C.2       0 UNK         0.4909 
      3 O         -84.8137   26.3496  -74.0270 O.2       0 UNK        -0.5240 
      4 N         -83.3106   28.0281  -74.1645 N.am      1 UNK        -0.4739 
      5 CA        -82.1021   27.2081  -74.2917 C.3       1 UNK         0.0864 
      6 C6        -80.8669   28.0109  -74.8074 C.3       11 UNK        -0.0881 
      7 S7        -80.8878   29.8296  -74.5904 S.3       11 UNK        -0.2682 
      8 C8        -80.3297   30.0646  -72.8711 C.3       11 UNK         0.0289 
      9 C9        -78.9256   29.5357  -72.6067 C.ar      11 UNK        -0.0687 
     10 C10       -78.7290   28.5150  -71.6727 C.ar      11 UNK        -0.0823 
     11 C11       -77.4447   28.0441  -71.3879 C.ar      11 UNK        -0.0830 
     12 C12       -76.3487   28.6031  -72.0521 C.ar      11 UNK        -0.1021 
     13 C13       -76.5288   29.6244  -72.9894 C.ar      11 UNK        -0.0753 
     14 C14       -77.8200   30.0899  -73.2592 C.ar      11 UNK        -0.0933 
     15 C15       -75.3362   30.2077  -73.7322 C.3       11 UNK         0.0166 
     16 S16       -74.4954   31.5044  -72.7705 S.3       11 UNK        -0.2615 
     17 C17       -73.2003   30.5536  -71.8980 C.3       11 UNK        -0.0865 
     18 CA        -71.8228   30.6409  -72.6090 C.3       10 UNK         0.0862 
     19 C         -70.6876   30.0154  -71.7442 C.2       10 UNK         0.5551 
     20 N         -69.8913   29.0783  -72.2474 N.am      10 UNK        -0.7319 
     21 O         -70.5183   30.3981  -70.5892 O.2       10 UNK        -0.5018 
     22 N         -71.8931   30.1047  -73.9765 N.am      10 UNK        -0.4509 
     23 C         -71.1459   30.5126  -75.0076 C.2       10 UNK         0.4899 
     24 O         -70.3406   31.4433  -74.9473 O.2       10 UNK        -0.4839 
     25 CA        -71.3366   29.7344  -76.3253 C.3       9 UNK         0.0222 
     26 CB        -70.1637   29.9285  -77.3094 C.3       9 UNK        -0.1966 
     27 N         -71.6125   28.3037  -76.1263 N.am      9 UNK        -0.4218 
     28 C         -70.8313   27.4072  -75.4973 C.2       9 UNK         0.5020 
     29 O         -69.7716   27.7026  -74.9427 O.2       9 UNK        -0.5274 
     30 CA        -71.3058   25.9412  -75.4376 C.3       8 UNK         0.0270 
     31 CB        -71.5454   25.5083  -73.9807 C.3       8 UNK        -0.1976 
     32 N         -72.5140   25.6908  -76.2295 N.am      8 UNK        -0.4313 
     33 C         -72.5217   25.5387  -77.5632 C.2       8 UNK         0.5041 
     34 O         -71.4959   25.5043  -78.2441 O.2       8 UNK        -0.5577 
     35 CA        -73.8842   25.4336  -78.2783 C.3       7 UNK         0.0284 
     36 CB        -74.1557   23.9797  -78.6979 C.3       7 UNK        -0.1958 
     37 N         -75.0281   25.9335  -77.5093 N.am      7 UNK        -0.4454 
     38 C         -75.1805   27.1846  -77.0527 C.2       7 UNK         0.5089 
     39 O         -74.3677   28.0895  -77.2461 O.2       7 UNK        -0.5125 
     40 CA        -76.4048   27.4432  -76.1570 C.3       6 UNK         0.0408 
     41 CB        -77.6421   27.7669  -77.0037 C.3       6 UNK        -0.1791 
     42 N         -76.6902   26.3376  -75.2325 N.am      6 UNK        -0.4762 
     43 C         -75.8234   25.8744  -74.3161 C.2       6 UNK         0.5007 
     44 O         -74.7037   26.3550  -74.1411 O.2       6 UNK        -0.5032 
     45 CA        -76.2367   24.6184  -73.5259 C.3       5 UNK         0.0783 
     46 C46       -77.1619   24.9367  -72.3266 C.3       11 UNK        -0.0857 
     47 S47       -76.2174   25.5658  -70.8997 S.3       11 UNK        -0.2512 
     48 C48       -77.2547   26.9548  -70.3374 C.3       11 UNK         0.0225 
     49 N         -76.8383   23.6362  -74.4259 N.am      5 UNK        -0.4615 
     50 C         -76.1420   22.8043  -75.2123 C.2       4 UNK         0.5053 
     51 O         -74.9150   22.7134  -75.1922 O.2       4 UNK        -0.5105 
     52 CA        -76.9421   21.9323  -76.1981 C.3       4 UNK         0.0263 
     53 CB        -77.2091   20.5457  -75.5913 C.3       4 UNK        -0.1981 
     54 N         -78.2146   22.5341  -76.6060 N.am      4 UNK        -0.4224 
     55 C         -78.3267   23.6515  -77.3381 C.2       3 UNK         0.4895 
     56 O         -77.3663   24.2651  -77.8004 O.2       3 UNK        -0.5091 
     57 CA        -79.7457   24.2129  -77.5356 C.3       3 UNK         0.0250 
     58 CB        -80.3974   23.5992  -78.7845 C.3       3 UNK        -0.1996 
     59 N         -80.6290   24.0273  -76.3768 N.am      3 UNK        -0.4254 
     60 C         -80.3886   24.4971  -75.1448 C.2       2 UNK         0.5004 
     61 O         -79.3629   25.1035  -74.8318 O.2       2 UNK        -0.5226 
     62 CA        -81.4572   24.1988  -74.0814 C.3       2 UNK         0.0269 
     63 CB        -81.2213   22.7936  -73.5029 C.3       2 UNK        -0.1926 
     64 N         -81.4714   25.1564  -72.9675 N.am      2 UNK        -0.4687 
     65 C         -81.7882   26.4625  -72.9694 C.2       1 UNK         0.5165 
     66 O         -81.8326   27.0956  -71.9147 O.2       1 UNK        -0.5079 
     67 H67       -86.1651   28.4064  -72.8644 H         1 UNK         0.0900 
     68 H68       -86.4100   28.4643  -74.6124 H         1 UNK         0.0900 
     69 H69       -85.2950   29.5928  -73.8390 H         1 UNK         0.0900 
     70 H70       -83.1416   29.0242  -74.1329 H         1 UNK         0.2959 
     71 H71       -82.3477   26.4716  -75.0555 H         1 UNK         0.1079 
     72 H72       -79.9285   27.6235  -74.4053 H         1 UNK         0.0837 
     73 H73       -80.7904   27.8457  -75.8828 H         1 UNK         0.0837 
     74 H74       -80.3464   31.1318  -72.6465 H         1 UNK         0.0685 
     75 H75       -81.0549   29.6065  -72.1980 H         1 UNK         0.0685 
     76 H76       -79.5791   28.0954  -71.1532 H         1 UNK         0.1434 
     77 H77       -75.3563   28.2300  -71.8450 H         1 UNK         0.1329 
     78 H78       -77.9683   30.8823  -73.9800 H         1 UNK         0.1335 
     79 H79       -75.6641   30.6411  -74.6783 H         1 UNK         0.0680 
     80 H80       -74.6371   29.4130  -73.9949 H         1 UNK         0.0680 
     81 H81       -73.5041   29.5139  -71.7785 H         1 UNK         0.1032 
     82 H82       -73.1325   30.9607  -70.8873 H         1 UNK         0.1032 
     83 H83       -71.5719   31.7010  -72.6808 H         1 UNK         0.0461 
     84 H84       -69.1622   28.6952  -71.6674 H         1 UNK         0.3453 
     85 H85       -69.9847   28.7626  -73.2060 H         1 UNK         0.3453 
     86 H86       -72.5047   29.3152  -74.1144 H         1 UNK         0.2984 
     87 H87       -72.2304   30.1498  -76.7930 H         1 UNK         0.0554 
     88 H88       -70.3322   29.3854  -78.2393 H         1 UNK         0.0847 
     89 H89       -69.2196   29.5839  -76.8860 H         1 UNK         0.0847 
     90 H90       -70.0387   30.9805  -77.5688 H         1 UNK         0.0847 
     91 H91       -72.4918   27.9820  -76.5217 H         1 UNK         0.3141 
     92 H92       -70.4981   25.3247  -75.8379 H         1 UNK         0.0743 
     93 H93       -70.6117   25.5164  -73.4168 H         1 UNK         0.0784 
     94 H94       -72.2338   26.1775  -73.4646 H         1 UNK         0.0784 
     95 H95       -71.9495   24.4974  -73.9234 H         1 UNK         0.0784 
     96 H96       -73.3960   25.7316  -75.7302 H         1 UNK         0.3213 
     97 H97       -73.8148   26.0417  -79.1826 H         1 UNK         0.0855 
     98 H98       -73.3367   23.5859  -79.3013 H         1 UNK         0.0814 
     99 H99       -75.0631   23.9011  -79.2969 H         1 UNK         0.0814 
    100 H100      -74.2666   23.3261  -77.8324 H         1 UNK         0.0814 
    101 H101      -75.7920   25.2785  -77.3593 H         1 UNK         0.3105 
    102 H102      -76.1835   28.3203  -75.5513 H         1 UNK         0.0547 
    103 H103      -77.4446   28.6030  -77.6758 H         1 UNK         0.0837 
    104 H104      -77.9465   26.9215  -77.6190 H         1 UNK         0.0837 
    105 H105      -78.4823   28.0546  -76.3754 H         1 UNK         0.0837 
    106 H106      -77.6065   25.9029  -75.2908 H         1 UNK         0.3020 
    107 H107      -75.3179   24.1782  -73.1297 H         1 UNK         0.1245 
    108 H108      -77.6676   24.0294  -71.9926 H         1 UNK         0.0781 
    109 H109      -77.9561   25.6303  -72.6087 H         1 UNK         0.0781 
    110 H110      -76.7945   27.3997  -69.4543 H         1 UNK         0.0836 
    111 H111      -78.2173   26.5559  -70.0131 H         1 UNK         0.0836 
    112 H112      -77.8400   23.7109  -74.5496 H         1 UNK         0.3022 
    113 H113      -76.3294   21.8035  -77.0930 H         1 UNK         0.0747 
    114 H114      -77.7043   19.8879  -76.3059 H         1 UNK         0.0793 
    115 H115      -76.2757   20.0610  -75.3012 H         1 UNK         0.0793 
    116 H116      -77.8347   20.6074  -74.6998 H         1 UNK         0.0793 
    117 H117      -79.0585   22.0915  -76.2730 H         1 UNK         0.3047 
    118 H118      -79.6501   25.2876  -77.6989 H         1 UNK         0.0822 
    119 H119      -81.3598   24.0638  -78.9999 H         1 UNK         0.0807 
    120 H120      -80.5588   22.5263  -78.6726 H         1 UNK         0.0807 
    121 H121      -79.7675   23.7438  -79.6637 H         1 UNK         0.0807 
    122 H122      -81.4864   23.5205  -76.5477 H         1 UNK         0.2946 
    123 H123      -82.4422   24.2145  -74.5536 H         1 UNK         0.1144 
    124 H124      -81.9912   22.5285  -72.7778 H         1 UNK         0.0793 
    125 H125      -80.2532   22.7189  -73.0048 H         1 UNK         0.0793 
    126 H126      -81.2453   22.0323  -74.2839 H         1 UNK         0.0793 
    127 H127      -81.2362   24.7564  -72.0719 H         1 UNK         0.2896 
@<TRIPOS>BOND
     1    1    2 1    
     2    1   67 1    
     3    1   68 1    
     4    1   69 1    
     5    2    3 2    
     6    2    4 am   BACKBONE|DICT|INTERRES
     7    4    5 1    
     8    4   70 1    
     9    5    6 1    
    10    5   65 1    
    11    5   71 1    
    12    6    7 1    
    13    6   72 1    
    14    6   73 1    
    15    7    8 1    
    16    8    9 1    
    17    8   74 1    
    18    8   75 1    
    19    9   10 ar   
    20    9   14 ar   
    21   10   11 ar   
    22   10   76 1    
    23   11   12 ar   
    24   11   48 1    
    25   12   13 ar   
    26   12   77 1    
    27   13   14 ar   
    28   13   15 1    
    29   14   78 1    
    30   15   16 1    
    31   15   79 1    
    32   15   80 1    
    33   16   17 1    
    34   17   18 1    
    35   17   81 1    
    36   17   82 1    
    37   18   19 1    
    38   18   22 1    
    39   18   83 1    
    40   19   20 am   BACKBONE|DICT|INTERRES
    41   19   21 2    
    42   20   84 1    
    43   20   85 1    
    44   22   23 am   BACKBONE|DICT|INTERRES
    45   22   86 1    
    46   23   24 2    
    47   23   25 1    
    48   25   26 1    
    49   25   27 1    
    50   25   87 1    
    51   26   88 1    
    52   26   89 1    
    53   26   90 1    
    54   27   28 am   BACKBONE|DICT|INTERRES
    55   27   91 1    
    56   28   29 2    
    57   28   30 1    
    58   30   31 1    
    59   30   32 1    
    60   30   92 1    
    61   31   93 1    
    62   31   94 1    
    63   31   95 1    
    64   32   33 am   BACKBONE|DICT|INTERRES
    65   32   96 1    
    66   33   34 2    
    67   33   35 1    
    68   35   36 1    
    69   35   37 1    
    70   35   97 1    
    71   36   98 1    
    72   36   99 1    
    73   36  100 1    
    74   37   38 am   BACKBONE|DICT|INTERRES
    75   37  101 1    
    76   38   39 2    
    77   38   40 1    
    78   40   41 1    
    79   40   42 1    
    80   40  102 1    
    81   41  103 1    
    82   41  104 1    
    83   41  105 1    
    84   42   43 am   BACKBONE|DICT|INTERRES
    85   42  106 1    
    86   43   44 2    
    87   43   45 1    
    88   45   46 1    
    89   45   49 1    
    90   45  107 1    
    91   46   47 1    
    92   46  108 1    
    93   46  109 1    
    94   47   48 1    
    95   48  110 1    
    96   48  111 1    
    97   49   50 am   BACKBONE|DICT|INTERRES
    98   49  112 1    
    99   50   51 2    
   100   50   52 1    
   101   52   53 1    
   102   52   54 1    
   103   52  113 1    
   104   53  114 1    
   105   53  115 1    
   106   53  116 1    
   107   54   55 am   BACKBONE|DICT|INTERRES
   108   54  117 1    
   109   55   56 2    
   110   55   57 1    
   111   57   58 1    
   112   57   59 1    
   113   57  118 1    
   114   58  119 1    
   115   58  120 1    
   116   58  121 1    
   117   59   60 am   BACKBONE|DICT|INTERRES
   118   59  122 1    
   119   60   61 2    
   120   60   62 1    
   121   62   63 1    
   122   62   64 1    
   123   62  123 1    
   124   63  124 1    
   125   63  125 1    
   126   63  126 1    
   127   64   65 am   BACKBONE|DICT|INTERRES
   128   64  127 1    
   129   65   66 2    
@<TRIPOS>SUBSTRUCTURE
     1 UNK         1 GROUP             0       ****    0 ROOT    
