@<TRIPOS>MOLECULE
3R135
127   129    1
SMALL
USER_CHARGES


@<TRIPOS>ATOM
      1 CA        -83.7381   26.7029  -69.6620 C.3       0 UNK        -0.1998 
      2 C         -83.7590   27.1795  -71.1065 C.2       0 UNK         0.4909 
      3 O         -84.7979   27.1015  -71.7627 O.2       0 UNK        -0.5240 
      4 N         -82.6184   27.6747  -71.6043 N.am      1 UNK        -0.4739 
      5 CA        -82.4472   28.1660  -72.9787 C.3       1 UNK         0.0864 
      6 C6        -81.1762   29.0371  -73.1272 C.3       11 UNK        -0.0881 
      7 S7        -81.2516   30.5808  -72.1491 S.3       11 UNK        -0.2682 
      8 C8        -80.4043   30.1531  -70.5897 C.3       11 UNK         0.0289 
      9 C9        -78.9699   29.6972  -70.8111 C.ar      11 UNK        -0.0687 
     10 C10       -78.6408   28.3416  -70.7118 C.ar      11 UNK        -0.0823 
     11 C11       -77.3374   27.9073  -70.9650 C.ar      11 UNK        -0.0830 
     12 C12       -76.3513   28.8456  -71.2805 C.ar      11 UNK        -0.1021 
     13 C13       -76.6638   30.2044  -71.3714 C.ar      11 UNK        -0.0753 
     14 C14       -77.9750   30.6264  -71.1316 C.ar      11 UNK        -0.0933 
     15 C15       -75.5882   31.2070  -71.7563 C.3       11 UNK         0.0166 
     16 S16       -75.6234   31.5259  -73.5459 S.3       11 UNK        -0.2615 
     17 C17       -74.0522   32.4218  -73.7918 C.3       11 UNK        -0.0865 
     18 CA        -73.0428   31.5913  -74.6259 C.3       10 UNK         0.0862 
     19 C         -71.8115   32.4473  -75.0239 C.2       10 UNK         0.5551 
     20 N         -71.8845   33.1538  -76.1433 N.am      10 UNK        -0.7319 
     21 O         -70.8116   32.5084  -74.3102 O.2       10 UNK        -0.5018 
     22 N         -72.6394   30.3643  -73.9241 N.am      10 UNK        -0.4509 
     23 C         -72.2298   29.2452  -74.5302 C.2       10 UNK         0.4899 
     24 O         -72.2029   29.1019  -75.7562 O.2       10 UNK        -0.4839 
     25 CA        -71.7632   28.1032  -73.6097 C.3       9 UNK         0.0222 
     26 CB        -72.7490   27.8198  -72.4595 C.3       9 UNK        -0.1966 
     27 N         -71.6076   26.8917  -74.4050 N.am      9 UNK        -0.4218 
     28 C         -70.6599   25.9600  -74.2661 C.2       9 UNK         0.5020 
     29 O         -69.7968   25.9789  -73.3871 O.2       9 UNK        -0.5274 
     30 CA        -70.6741   24.8075  -75.2871 C.3       8 UNK         0.0270 
     31 CB        -71.5512   23.6514  -74.7785 C.3       8 UNK        -0.1976 
     32 N         -71.1490   25.2215  -76.6096 N.am      8 UNK        -0.4313 
     33 C         -70.5184   26.0623  -77.4389 C.2       8 UNK         0.5041 
     34 O         -69.3977   26.5223  -77.2164 O.2       8 UNK        -0.5577 
     35 CA        -71.2559   26.4836  -78.7260 C.3       7 UNK         0.0284 
     36 CB        -70.9472   25.5160  -79.8858 C.3       7 UNK        -0.1958 
     37 N         -72.7046   26.6974  -78.5653 N.am      7 UNK        -0.4454 
     38 C         -73.6588   25.7987  -78.2881 C.2       7 UNK         0.5089 
     39 O         -73.4515   24.5913  -78.1482 O.2       7 UNK        -0.5125 
     40 CA        -75.0821   26.3507  -78.1043 C.3       6 UNK         0.0408 
     41 CB        -75.9196   26.1083  -79.3689 C.3       6 UNK        -0.1791 
     42 N         -75.7527   25.7529  -76.9453 N.am      6 UNK        -0.4762 
     43 C         -75.3341   25.8879  -75.6755 C.2       6 UNK         0.5007 
     44 O         -74.3413   26.5447  -75.3634 O.2       6 UNK        -0.5032 
     45 CA        -76.1413   25.1959  -74.5566 C.3       5 UNK         0.0783 
     46 C46       -76.9558   26.2410  -73.7575 C.3       11 UNK        -0.0857 
     47 S47       -77.7878   25.5178  -72.3003 S.3       11 UNK        -0.2512 
     48 C48       -77.0037   26.4222  -70.9246 C.3       11 UNK         0.0225 
     49 N         -76.9883   24.1148  -75.0675 N.am      5 UNK        -0.4615 
     50 C         -76.5328   22.9071  -75.4293 C.2       4 UNK         0.5053 
     51 O         -75.3558   22.5651  -75.3153 O.2       4 UNK        -0.5105 
     52 CA        -77.5452   21.9030  -76.0159 C.3       4 UNK         0.0263 
     53 CB        -77.9178   20.8453  -74.9640 C.3       4 UNK        -0.1981 
     54 N         -78.7744   22.5156  -76.5271 N.am      4 UNK        -0.4224 
     55 C         -78.8476   23.3798  -77.5498 C.2       3 UNK         0.4895 
     56 O         -77.8777   23.7234  -78.2237 O.2       3 UNK        -0.5091 
     57 CA        -80.2253   24.0037  -77.8401 C.3       3 UNK         0.0250 
     58 CB        -80.9268   23.2485  -78.9802 C.3       3 UNK        -0.1996 
     59 N         -81.1140   24.0583  -76.6715 N.am      3 UNK        -0.4254 
     60 C         -80.8608   24.7495  -75.5507 C.2       2 UNK         0.5004 
     61 O         -79.8305   25.4013  -75.3679 O.2       2 UNK        -0.5226 
     62 CA        -81.8980   24.6221  -74.4229 C.3       2 UNK         0.0269 
     63 CB        -81.5479   23.4286  -73.5182 C.3       2 UNK        -0.1926 
     64 N         -81.9790   25.8282  -73.5974 N.am      2 UNK        -0.4687 
     65 C         -82.4409   27.0175  -74.0114 C.2       1 UNK         0.5165 
     66 O         -82.8747   27.2232  -75.1464 O.2       1 UNK        -0.5079 
     67 H67       -84.4705   27.2557  -69.0744 H         1 UNK         0.0900 
     68 H68       -82.7605   26.8399  -69.2001 H         1 UNK         0.0900 
     69 H69       -83.9909   25.6441  -69.6130 H         1 UNK         0.0900 
     70 H70       -81.8012   27.7240  -71.0160 H         1 UNK         0.2959 
     71 H71       -83.3112   28.7907  -73.2179 H         1 UNK         0.1079 
     72 H72       -80.2800   28.4660  -72.8843 H         1 UNK         0.0837 
     73 H73       -81.0516   29.3387  -74.1693 H         1 UNK         0.0837 
     74 H74       -80.4040   31.0314  -69.9425 H         1 UNK         0.0685 
     75 H75       -80.9771   29.3922  -70.0590 H         1 UNK         0.0685 
     76 H76       -79.4034   27.6142  -70.4710 H         1 UNK         0.1434 
     77 H77       -75.3419   28.5173  -71.4761 H         1 UNK         0.1329 
     78 H78       -78.2271   31.6746  -71.2182 H         1 UNK         0.1335 
     79 H79       -75.7335   32.1436  -71.2159 H         1 UNK         0.0680 
     80 H80       -74.6055   30.8298  -71.4694 H         1 UNK         0.0680 
     81 H81       -73.6219   32.7095  -72.8307 H         1 UNK         0.1032 
     82 H82       -74.2905   33.3561  -74.3040 H         1 UNK         0.1032 
     83 H83       -73.5480   31.3000  -75.5498 H         1 UNK         0.0461 
     84 H84       -71.1011   33.7286  -76.4124 H         1 UNK         0.3453 
     85 H85       -72.7030   33.1169  -76.7311 H         1 UNK         0.3453 
     86 H86       -72.5850   30.4259  -72.9194 H         1 UNK         0.2984 
     87 H87       -70.7973   28.3973  -73.1945 H         1 UNK         0.0554 
     88 H88       -72.4144   26.9789  -71.8518 H         1 UNK         0.0847 
     89 H89       -73.7399   27.5760  -72.8435 H         1 UNK         0.0847 
     90 H90       -72.8481   28.6740  -71.7897 H         1 UNK         0.0847 
     91 H91       -72.2887   26.7991  -75.1529 H         1 UNK         0.3141 
     92 H92       -69.6498   24.4448  -75.3944 H         1 UNK         0.0743 
     93 H93       -72.5966   23.9494  -74.6821 H         1 UNK         0.0784 
     94 H94       -71.5096   22.7953  -75.4523 H         1 UNK         0.0784 
     95 H95       -71.2168   23.3088  -73.7983 H         1 UNK         0.0784 
     96 H96       -72.0501   24.8631  -76.9177 H         1 UNK         0.3213 
     97 H97       -70.8508   27.4587  -79.0022 H         1 UNK         0.0855 
     98 H98       -69.8729   25.4592  -80.0662 H         1 UNK         0.0814 
     99 H99       -71.4141   25.8466  -80.8135 H         1 UNK         0.0814 
    100 H100      -71.2918   24.5026  -79.6786 H         1 UNK         0.0814 
    101 H101      -72.9876   27.6676  -78.6050 H         1 UNK         0.3105 
    102 H102      -75.0263   27.4275  -77.9303 H         1 UNK         0.0547 
    103 H103      -75.4802   26.6122  -80.2306 H         1 UNK         0.0837 
    104 H104      -75.9819   25.0467  -79.6116 H         1 UNK         0.0837 
    105 H105      -76.9357   26.4861  -79.2545 H         1 UNK         0.0837 
    106 H106      -76.5356   25.1405  -77.1405 H         1 UNK         0.3020 
    107 H107      -75.4059   24.7581  -73.8772 H         1 UNK         0.1245 
    108 H108      -77.7157   26.7044  -74.3890 H         1 UNK         0.0781 
    109 H109      -76.3052   27.0543  -73.4336 H         1 UNK         0.0781 
    110 H110      -75.9249   26.2603  -70.9553 H         1 UNK         0.0836 
    111 H111      -77.3501   26.0009  -69.9799 H         1 UNK         0.0836 
    112 H112      -77.9719   24.3370  -75.1734 H         1 UNK         0.3022 
    113 H113      -77.0533   21.4007  -76.8516 H         1 UNK         0.0747 
    114 H114      -78.5653   20.0757  -75.3847 H         1 UNK         0.0793 
    115 H115      -77.0275   20.3429  -74.5828 H         1 UNK         0.0793 
    116 H116      -78.4314   21.2894  -74.1101 H         1 UNK         0.0793 
    117 H117      -79.6271   22.2946  -76.0351 H         1 UNK         0.3047 
    118 H118      -80.0492   25.0309  -78.1672 H         1 UNK         0.0822 
    119 H119      -81.8600   23.7352  -79.2646 H         1 UNK         0.0807 
    120 H120      -81.1542   22.2182  -78.7038 H         1 UNK         0.0807 
    121 H121      -80.2976   23.2153  -79.8710 H         1 UNK         0.0807 
    122 H122      -81.9757   23.5351  -76.7384 H         1 UNK         0.2946 
    123 H123      -82.8814   24.4547  -74.8682 H         1 UNK         0.1144 
    124 H124      -81.5222   22.4974  -74.0855 H         1 UNK         0.0793 
    125 H125      -82.2858   23.3008  -72.7258 H         1 UNK         0.0793 
    126 H126      -80.5700   23.5523  -73.0496 H         1 UNK         0.0793 
    127 H127      -81.6222   25.7583  -72.6563 H         1 UNK         0.2896 
@<TRIPOS>BOND
     1    1    2 1    
     2    1   67 1    
     3    1   68 1    
     4    1   69 1    
     5    2    3 2    
     6    2    4 am   BACKBONE|DICT|INTERRES
     7    4    5 1    
     8    4   70 1    
     9    5    6 1    
    10    5   65 1    
    11    5   71 1    
    12    6    7 1    
    13    6   72 1    
    14    6   73 1    
    15    7    8 1    
    16    8    9 1    
    17    8   74 1    
    18    8   75 1    
    19    9   10 ar   
    20    9   14 ar   
    21   10   11 ar   
    22   10   76 1    
    23   11   12 ar   
    24   11   48 1    
    25   12   13 ar   
    26   12   77 1    
    27   13   14 ar   
    28   13   15 1    
    29   14   78 1    
    30   15   16 1    
    31   15   79 1    
    32   15   80 1    
    33   16   17 1    
    34   17   18 1    
    35   17   81 1    
    36   17   82 1    
    37   18   19 1    
    38   18   22 1    
    39   18   83 1    
    40   19   20 am   BACKBONE|DICT|INTERRES
    41   19   21 2    
    42   20   84 1    
    43   20   85 1    
    44   22   23 am   BACKBONE|DICT|INTERRES
    45   22   86 1    
    46   23   24 2    
    47   23   25 1    
    48   25   26 1    
    49   25   27 1    
    50   25   87 1    
    51   26   88 1    
    52   26   89 1    
    53   26   90 1    
    54   27   28 am   BACKBONE|DICT|INTERRES
    55   27   91 1    
    56   28   29 2    
    57   28   30 1    
    58   30   31 1    
    59   30   32 1    
    60   30   92 1    
    61   31   93 1    
    62   31   94 1    
    63   31   95 1    
    64   32   33 am   BACKBONE|DICT|INTERRES
    65   32   96 1    
    66   33   34 2    
    67   33   35 1    
    68   35   36 1    
    69   35   37 1    
    70   35   97 1    
    71   36   98 1    
    72   36   99 1    
    73   36  100 1    
    74   37   38 am   BACKBONE|DICT|INTERRES
    75   37  101 1    
    76   38   39 2    
    77   38   40 1    
    78   40   41 1    
    79   40   42 1    
    80   40  102 1    
    81   41  103 1    
    82   41  104 1    
    83   41  105 1    
    84   42   43 am   BACKBONE|DICT|INTERRES
    85   42  106 1    
    86   43   44 2    
    87   43   45 1    
    88   45   46 1    
    89   45   49 1    
    90   45  107 1    
    91   46   47 1    
    92   46  108 1    
    93   46  109 1    
    94   47   48 1    
    95   48  110 1    
    96   48  111 1    
    97   49   50 am   BACKBONE|DICT|INTERRES
    98   49  112 1    
    99   50   51 2    
   100   50   52 1    
   101   52   53 1    
   102   52   54 1    
   103   52  113 1    
   104   53  114 1    
   105   53  115 1    
   106   53  116 1    
   107   54   55 am   BACKBONE|DICT|INTERRES
   108   54  117 1    
   109   55   56 2    
   110   55   57 1    
   111   57   58 1    
   112   57   59 1    
   113   57  118 1    
   114   58  119 1    
   115   58  120 1    
   116   58  121 1    
   117   59   60 am   BACKBONE|DICT|INTERRES
   118   59  122 1    
   119   60   61 2    
   120   60   62 1    
   121   62   63 1    
   122   62   64 1    
   123   62  123 1    
   124   63  124 1    
   125   63  125 1    
   126   63  126 1    
   127   64   65 am   BACKBONE|DICT|INTERRES
   128   64  127 1    
   129   65   66 2    
@<TRIPOS>SUBSTRUCTURE
     1 UNK         1 GROUP             0       ****    0 ROOT    
