@<TRIPOS>MOLECULE
3R135
127   129    1
SMALL
USER_CHARGES


@<TRIPOS>ATOM
      1 CA        -79.3563   22.4721  -70.7626 C.3       0 UNK        -0.1998 
      2 C         -79.4354   23.6648  -71.7015 C.2       0 UNK         0.4909 
      3 O         -78.5693   23.8184  -72.5628 O.2       0 UNK        -0.5240 
      4 N         -80.4790   24.4954  -71.5576 N.am      1 UNK        -0.4739 
      5 CA        -80.7253   25.7438  -72.3024 C.3       1 UNK         0.0864 
      6 C6        -79.7772   26.8977  -71.8910 C.3       11 UNK        -0.0881 
      7 S7        -79.7443   27.2317  -70.0926 S.3       11 UNK        -0.2682 
      8 C8        -80.2787   28.9739  -69.9905 C.3       11 UNK         0.0289 
      9 C9        -79.4363   29.8839  -70.8743 C.ar      11 UNK        -0.0687 
     10 C10       -79.9922   30.4479  -72.0253 C.ar      11 UNK        -0.0823 
     11 C11       -79.2079   31.2092  -72.8956 C.ar      11 UNK        -0.0830 
     12 C12       -77.8622   31.4347  -72.5893 C.ar      11 UNK        -0.1021 
     13 C13       -77.2984   30.8857  -71.4329 C.ar      11 UNK        -0.0753 
     14 C14       -78.0924   30.1204  -70.5734 C.ar      11 UNK        -0.0933 
     15 C15       -75.8225   31.0802  -71.1301 C.3       11 UNK         0.0166 
     16 S16       -74.8801   29.5977  -71.5949 S.3       11 UNK        -0.2615 
     17 C17       -73.1760   30.1594  -71.2623 C.3       11 UNK        -0.0865 
     18 CA        -72.0878   29.1817  -71.7824 C.3       10 UNK         0.0862 
     19 C         -71.9525   27.9095  -70.8933 C.2       10 UNK         0.5551 
     20 N         -72.0426   26.6978  -71.4259 N.am      10 UNK        -0.7319 
     21 O         -71.7393   28.0277  -69.6887 O.2       10 UNK        -0.5018 
     22 N         -72.2422   28.9325  -73.2231 N.am      10 UNK        -0.4509 
     23 C         -71.2556   28.6140  -74.0666 C.2       10 UNK         0.4899 
     24 O         -70.0714   28.4972  -73.7445 O.2       10 UNK        -0.4839 
     25 CA        -71.6762   28.4114  -75.5327 C.3       9 UNK         0.0222 
     26 CB        -70.7688   29.2147  -76.4809 C.3       9 UNK        -0.1966 
     27 N         -71.7209   27.0177  -75.9887 N.am      9 UNK        -0.4218 
     28 C         -72.1130   25.9187  -75.3276 C.2       9 UNK         0.5020 
     29 O         -72.3600   25.8714  -74.1225 O.2       9 UNK        -0.5274 
     30 CA        -72.2972   24.6568  -76.1929 C.3       8 UNK         0.0270 
     31 CB        -72.7383   23.4207  -75.3844 C.3       8 UNK        -0.1976 
     32 N         -73.2559   24.8861  -77.2813 N.am      8 UNK        -0.4313 
     33 C         -72.9528   25.4853  -78.4405 C.2       8 UNK         0.5041 
     34 O         -71.8419   25.9637  -78.6780 O.2       8 UNK        -0.5577 
     35 CA        -74.0430   25.5777  -79.5118 C.3       7 UNK         0.0284 
     36 CB        -74.1917   24.2371  -80.2544 C.3       7 UNK        -0.1958 
     37 N         -75.3420   26.0048  -78.9840 N.am      7 UNK        -0.4454 
     38 C         -76.2191   26.7250  -79.6964 C.2       7 UNK         0.5089 
     39 O         -75.9798   27.1900  -80.8121 O.2       7 UNK        -0.5125 
     40 CA        -77.6180   26.9318  -79.0982 C.3       6 UNK         0.0408 
     41 CB        -78.4714   25.6716  -79.3008 C.3       6 UNK        -0.1791 
     42 N         -77.6163   27.2973  -77.6826 N.am      6 UNK        -0.4762 
     43 C         -77.2913   28.5096  -77.2090 C.2       6 UNK         0.5007 
     44 O         -76.8408   29.4173  -77.9088 O.2       6 UNK        -0.5032 
     45 CA        -77.5370   28.7505  -75.7039 C.3       5 UNK         0.0783 
     46 C46       -78.9648   29.3015  -75.4476 C.3       11 UNK        -0.0857 
     47 S47       -79.0224   31.1149  -75.6929 S.3       11 UNK        -0.2512 
     48 C48       -79.8209   31.7527  -74.1797 C.3       11 UNK         0.0225 
     49 N         -77.2540   27.5353  -74.9321 N.am      5 UNK        -0.4615 
     50 C         -76.0065   27.1765  -74.5952 C.2       4 UNK         0.5053 
     51 O         -75.0216   27.8906  -74.7846 O.2       4 UNK        -0.5105 
     52 CA        -75.7969   25.7824  -73.9889 C.3       4 UNK         0.0263 
     53 CB        -75.7357   25.8260  -72.4547 C.3       4 UNK        -0.1981 
     54 N         -76.7578   24.7737  -74.4403 N.am      4 UNK        -0.4224 
     55 C         -76.7465   24.2291  -75.6662 C.2       3 UNK         0.4895 
     56 O         -76.0100   24.6108  -76.5786 O.2       3 UNK        -0.5091 
     57 CA        -77.6987   23.0550  -75.9211 C.3       3 UNK         0.0250 
     58 CB        -77.2019   21.7910  -75.1997 C.3       3 UNK        -0.1996 
     59 N         -79.0545   23.3738  -75.4761 N.am      3 UNK        -0.4254 
     60 C         -80.0985   23.5752  -76.2925 C.2       2 UNK         0.5004 
     61 O         -80.0443   23.4389  -77.5144 O.2       2 UNK        -0.5226 
     62 CA        -81.4441   23.9889  -75.6631 C.3       2 UNK         0.0269 
     63 CB        -82.4586   22.8370  -75.7598 C.3       2 UNK        -0.1926 
     64 N         -81.3626   24.4276  -74.2671 N.am      2 UNK        -0.4687 
     65 C         -80.7308   25.5276  -73.8346 C.2       1 UNK         0.5165 
     66 O         -80.1268   26.3020  -74.5818 O.2       1 UNK        -0.5079 
     67 H67       -79.3641   21.5446  -71.3344 H         1 UNK         0.0900 
     68 H68       -78.4308   22.5113  -70.1888 H         1 UNK         0.0900 
     69 H69       -80.1902   22.4478  -70.0614 H         1 UNK         0.0900 
     70 H70       -81.1553   24.2973  -70.8332 H         1 UNK         0.2959 
     71 H71       -81.7404   26.0542  -72.0492 H         1 UNK         0.1079 
     72 H72       -78.7604   26.6865  -72.2138 H         1 UNK         0.0837 
     73 H73       -80.0695   27.8012  -72.4230 H         1 UNK         0.0837 
     74 H74       -81.3340   29.0365  -70.2606 H         1 UNK         0.0685 
     75 H75       -80.2061   29.3079  -68.9546 H         1 UNK         0.0685 
     76 H76       -81.0298   30.2585  -72.2649 H         1 UNK         0.1434 
     77 H77       -77.2488   32.0119  -73.2678 H         1 UNK         0.1329 
     78 H78       -77.6534   29.6724  -69.6923 H         1 UNK         0.1335 
     79 H79       -75.6833   31.2838  -70.0672 H         1 UNK         0.0680 
     80 H80       -75.4334   31.9453  -71.6695 H         1 UNK         0.0680 
     81 H81       -73.0377   31.1308  -71.7396 H         1 UNK         0.1032 
     82 H82       -73.0611   30.3402  -70.1918 H         1 UNK         0.1032 
     83 H83       -71.1353   29.7003  -71.6569 H         1 UNK         0.0461 
     84 H84       -71.9433   25.8921  -70.8309 H         1 UNK         0.3453 
     85 H85       -72.1940   26.5684  -72.4247 H         1 UNK         0.3453 
     86 H86       -73.1963   28.9207  -73.5630 H         1 UNK         0.2984 
     87 H87       -72.6871   28.8045  -75.6508 H         1 UNK         0.0554 
     88 H88       -70.7168   30.2620  -76.1799 H         1 UNK         0.0847 
     89 H89       -71.1423   29.1918  -77.5049 H         1 UNK         0.0847 
     90 H90       -69.7495   28.8262  -76.4872 H         1 UNK         0.0847 
     91 H91       -71.5609   26.8800  -76.9831 H         1 UNK         0.3141 
     92 H92       -71.3203   24.4251  -76.6232 H         1 UNK         0.0743 
     93 H93       -72.0414   23.2171  -74.5704 H         1 UNK         0.0784 
     94 H94       -73.7261   23.5473  -74.9433 H         1 UNK         0.0784 
     95 H95       -72.7680   22.5302  -76.0124 H         1 UNK         0.0784 
     96 H96       -74.2140   24.5926  -77.1075 H         1 UNK         0.3213 
     97 H97       -73.6889   26.3206  -80.2305 H         1 UNK         0.0855 
     98 H98       -74.5894   23.4578  -79.6032 H         1 UNK         0.0814 
     99 H99       -73.2294   23.8893  -80.6329 H         1 UNK         0.0814 
    100 H100      -74.8597   24.3302  -81.1108 H         1 UNK         0.0814 
    101 H101      -75.6175   25.6540  -78.0693 H         1 UNK         0.3105 
    102 H102      -78.0955   27.7441  -79.6509 H         1 UNK         0.0547 
    103 H103      -79.4934   25.8211  -78.9525 H         1 UNK         0.0837 
    104 H104      -78.5270   25.4029  -80.3565 H         1 UNK         0.0837 
    105 H105      -78.0570   24.8136  -78.7703 H         1 UNK         0.0837 
    106 H106      -77.9469   26.6008  -77.0315 H         1 UNK         0.3020 
    107 H107      -76.8247   29.5154  -75.3831 H         1 UNK         0.1245 
    108 H108      -79.2740   29.0660  -74.4302 H         1 UNK         0.0781 
    109 H109      -79.7083   28.8236  -76.0888 H         1 UNK         0.0781 
    110 H110      -80.8860   31.5210  -74.2297 H         1 UNK         0.0836 
    111 H111      -79.7476   32.8410  -74.1751 H         1 UNK         0.0836 
    112 H112      -78.0343   26.9194  -74.7367 H         1 UNK         0.3022 
    113 H113      -74.8201   25.4509  -74.3307 H         1 UNK         0.0747 
    114 H114      -76.6756   26.1410  -72.0090 H         1 UNK         0.0793 
    115 H115      -75.4810   24.8497  -72.0427 H         1 UNK         0.0793 
    116 H116      -74.9681   26.5255  -72.1209 H         1 UNK         0.0793 
    117 H117      -77.3982   24.4065  -73.7358 H         1 UNK         0.3047 
    118 H118      -77.6836   22.8518  -76.9940 H         1 UNK         0.0822 
    119 H119      -76.1835   21.5431  -75.5026 H         1 UNK         0.0807 
    120 H120      -77.8286   20.9313  -75.4372 H         1 UNK         0.0807 
    121 H121      -77.2004   21.9120  -74.1156 H         1 UNK         0.0807 
    122 H122      -79.1777   23.5236  -74.4804 H         1 UNK         0.2946 
    123 H123      -81.8190   24.8283  -76.2533 H         1 UNK         0.1144 
    124 H124      -83.4429   23.1427  -75.4045 H         1 UNK         0.0793 
    125 H125      -82.1426   21.9715  -75.1760 H         1 UNK         0.0793 
    126 H126      -82.5793   22.5064  -76.7926 H         1 UNK         0.0793 
    127 H127      -81.7981   23.8299  -73.5790 H         1 UNK         0.2896 
@<TRIPOS>BOND
     1    1    2 1    
     2    1   67 1    
     3    1   68 1    
     4    1   69 1    
     5    2    3 2    
     6    2    4 am   BACKBONE|DICT|INTERRES
     7    4    5 1    
     8    4   70 1    
     9    5    6 1    
    10    5   65 1    
    11    5   71 1    
    12    6    7 1    
    13    6   72 1    
    14    6   73 1    
    15    7    8 1    
    16    8    9 1    
    17    8   74 1    
    18    8   75 1    
    19    9   10 ar   
    20    9   14 ar   
    21   10   11 ar   
    22   10   76 1    
    23   11   12 ar   
    24   11   48 1    
    25   12   13 ar   
    26   12   77 1    
    27   13   14 ar   
    28   13   15 1    
    29   14   78 1    
    30   15   16 1    
    31   15   79 1    
    32   15   80 1    
    33   16   17 1    
    34   17   18 1    
    35   17   81 1    
    36   17   82 1    
    37   18   19 1    
    38   18   22 1    
    39   18   83 1    
    40   19   20 am   BACKBONE|DICT|INTERRES
    41   19   21 2    
    42   20   84 1    
    43   20   85 1    
    44   22   23 am   BACKBONE|DICT|INTERRES
    45   22   86 1    
    46   23   24 2    
    47   23   25 1    
    48   25   26 1    
    49   25   27 1    
    50   25   87 1    
    51   26   88 1    
    52   26   89 1    
    53   26   90 1    
    54   27   28 am   BACKBONE|DICT|INTERRES
    55   27   91 1    
    56   28   29 2    
    57   28   30 1    
    58   30   31 1    
    59   30   32 1    
    60   30   92 1    
    61   31   93 1    
    62   31   94 1    
    63   31   95 1    
    64   32   33 am   BACKBONE|DICT|INTERRES
    65   32   96 1    
    66   33   34 2    
    67   33   35 1    
    68   35   36 1    
    69   35   37 1    
    70   35   97 1    
    71   36   98 1    
    72   36   99 1    
    73   36  100 1    
    74   37   38 am   BACKBONE|DICT|INTERRES
    75   37  101 1    
    76   38   39 2    
    77   38   40 1    
    78   40   41 1    
    79   40   42 1    
    80   40  102 1    
    81   41  103 1    
    82   41  104 1    
    83   41  105 1    
    84   42   43 am   BACKBONE|DICT|INTERRES
    85   42  106 1    
    86   43   44 2    
    87   43   45 1    
    88   45   46 1    
    89   45   49 1    
    90   45  107 1    
    91   46   47 1    
    92   46  108 1    
    93   46  109 1    
    94   47   48 1    
    95   48  110 1    
    96   48  111 1    
    97   49   50 am   BACKBONE|DICT|INTERRES
    98   49  112 1    
    99   50   51 2    
   100   50   52 1    
   101   52   53 1    
   102   52   54 1    
   103   52  113 1    
   104   53  114 1    
   105   53  115 1    
   106   53  116 1    
   107   54   55 am   BACKBONE|DICT|INTERRES
   108   54  117 1    
   109   55   56 2    
   110   55   57 1    
   111   57   58 1    
   112   57   59 1    
   113   57  118 1    
   114   58  119 1    
   115   58  120 1    
   116   58  121 1    
   117   59   60 am   BACKBONE|DICT|INTERRES
   118   59  122 1    
   119   60   61 2    
   120   60   62 1    
   121   62   63 1    
   122   62   64 1    
   123   62  123 1    
   124   63  124 1    
   125   63  125 1    
   126   63  126 1    
   127   64   65 am   BACKBONE|DICT|INTERRES
   128   64  127 1    
   129   65   66 2    
@<TRIPOS>SUBSTRUCTURE
     1 UNK         1 GROUP             0       ****    0 ROOT    
