@<TRIPOS>MOLECULE
3R135
127   129    1
SMALL
USER_CHARGES


@<TRIPOS>ATOM
      1 CA        -84.3888   23.6853  -73.6028 C.3       0 UNK        -0.1998 
      2 C         -84.5095   25.2018  -73.5986 C.2       0 UNK         0.4909 
      3 O         -85.5084   25.7392  -74.0773 O.2       0 UNK        -0.5240 
      4 N         -83.4982   25.8959  -73.0603 N.am      1 UNK        -0.4739 
      5 CA        -83.4259   27.3614  -72.9823 C.3       1 UNK         0.0864 
      6 C6        -82.3452   27.8152  -71.9684 C.3       11 UNK        -0.0881 
      7 S7        -80.6523   27.2657  -72.3882 S.3       11 UNK        -0.2682 
      8 C8        -79.7229   28.0943  -71.0693 C.3       11 UNK         0.0289 
      9 C9        -78.2242   27.9353  -71.2628 C.ar      11 UNK        -0.0687 
     10 C10       -77.5344   26.8978  -70.6287 C.ar      11 UNK        -0.0823 
     11 C11       -76.1460   26.7874  -70.7560 C.ar      11 UNK        -0.0830 
     12 C12       -75.4502   27.7161  -71.5377 C.ar      11 UNK        -0.1021 
     13 C13       -76.1307   28.7594  -72.1730 C.ar      11 UNK        -0.0753 
     14 C14       -77.5182   28.8587  -72.0387 C.ar      11 UNK        -0.0933 
     15 C15       -75.3672   29.8199  -72.9498 C.3       11 UNK         0.0166 
     16 S16       -75.3418   29.4692  -74.7320 S.3       11 UNK        -0.2615 
     17 C17       -74.5813   31.0077  -75.3657 C.3       11 UNK        -0.0865 
     18 CA        -73.2182   30.7852  -76.0894 C.3       10 UNK         0.0862 
     19 C         -72.5957   32.0985  -76.6546 C.2       10 UNK         0.5551 
     20 N         -73.3939   32.9626  -77.2684 N.am      10 UNK        -0.7319 
     21 O         -71.3899   32.3323  -76.5854 O.2       10 UNK        -0.5018 
     22 N         -72.2705   29.9803  -75.3032 N.am      10 UNK        -0.4509 
     23 C         -71.7710   30.2765  -74.0942 C.2       10 UNK         0.4899 
     24 O         -72.0229   31.3170  -73.4849 O.2       10 UNK        -0.4839 
     25 CA        -70.8694   29.2173  -73.4293 C.3       9 UNK         0.0222 
     26 CB        -71.1657   29.0794  -71.9240 C.3       9 UNK        -0.1966 
     27 N         -71.0371   27.9077  -74.0648 N.am      9 UNK        -0.4218 
     28 C         -70.0960   27.2485  -74.7502 C.2       9 UNK         0.5020 
     29 O         -68.9213   27.6092  -74.8357 O.2       9 UNK        -0.5274 
     30 CA        -70.5484   25.9775  -75.4917 C.3       8 UNK         0.0270 
     31 CB        -70.3041   24.7343  -74.6216 C.3       8 UNK        -0.1976 
     32 N         -71.9494   25.9994  -75.9385 N.am      8 UNK        -0.4313 
     33 C         -72.4535   26.8646  -76.8353 C.2       8 UNK         0.5041 
     34 O         -71.8023   27.8061  -77.2907 O.2       8 UNK        -0.5577 
     35 CA        -73.9236   26.6869  -77.2801 C.3       7 UNK         0.0284 
     36 CB        -74.1803   27.2246  -78.7029 C.3       7 UNK        -0.1958 
     37 N         -74.4416   25.3212  -77.1471 N.am      7 UNK        -0.4454 
     38 C         -73.9284   24.1955  -77.6665 C.2       7 UNK         0.5089 
     39 O         -72.9965   24.1743  -78.4722 O.2       7 UNK        -0.5125 
     40 CA        -74.5282   22.8665  -77.1547 C.3       6 UNK         0.0408 
     41 CB        -73.5085   21.7104  -77.2147 C.3       6 UNK        -0.1791 
     42 N         -75.1108   22.9472  -75.8053 N.am      6 UNK        -0.4762 
     43 C         -74.5293   23.3842  -74.6757 C.2       6 UNK         0.5007 
     44 O         -73.3748   23.8126  -74.6379 O.2       6 UNK        -0.5032 
     45 CA        -75.3962   23.3977  -73.3941 C.3       5 UNK         0.0783 
     46 C46       -74.6916   24.1249  -72.2209 C.3       11 UNK        -0.0857 
     47 S47       -75.6604   24.0434  -70.6780 S.3       11 UNK        -0.2512 
     48 C48       -75.3937   25.7066  -69.9906 C.3       11 UNK         0.0225 
     49 N         -76.7330   23.9484  -73.6549 N.am      5 UNK        -0.4615 
     50 C         -77.7474   23.2756  -74.2101 C.2       4 UNK         0.5053 
     51 O         -77.6656   22.0969  -74.5567 O.2       4 UNK        -0.5105 
     52 CA        -79.0566   24.0369  -74.4688 C.3       4 UNK         0.0263 
     53 CB        -80.0439   23.8021  -73.3150 C.3       4 UNK        -0.1981 
     54 N         -78.9226   25.4788  -74.7062 N.am      4 UNK        -0.4224 
     55 C         -78.1842   26.0660  -75.6616 C.2       3 UNK         0.4895 
     56 O         -77.3563   25.4753  -76.3590 O.2       3 UNK        -0.5091 
     57 CA        -78.4606   27.5673  -75.8826 C.3       3 UNK         0.0250 
     58 CB        -77.7265   28.1440  -77.1128 C.3       3 UNK        -0.1996 
     59 N         -79.9012   27.8595  -75.9562 N.am      3 UNK        -0.4254 
     60 C         -80.7794   27.3882  -76.8582 C.2       2 UNK         0.5004 
     61 O         -80.4832   26.6431  -77.7936 O.2       2 UNK        -0.5226 
     62 CA        -82.2458   27.7845  -76.6321 C.3       2 UNK         0.0269 
     63 CB        -83.2033   27.2083  -77.6931 C.3       2 UNK        -0.1926 
     64 N         -82.6483   27.3068  -75.3125 N.am      2 UNK        -0.4687 
     65 C         -83.2221   28.0438  -74.3542 C.2       1 UNK         0.5165 
     66 O         -83.5599   29.2189  -74.5045 O.2       1 UNK        -0.5079 
     67 H67       -84.3665   23.3139  -74.6269 H         1 UNK         0.0900 
     68 H68       -85.2451   23.2398  -73.0972 H         1 UNK         0.0900 
     69 H69       -83.4847   23.3455  -73.0981 H         1 UNK         0.0900 
     70 H70       -82.7105   25.4065  -72.6605 H         1 UNK         0.2959 
     71 H71       -84.3914   27.7132  -72.6114 H         1 UNK         0.1079 
     72 H72       -82.5927   27.4328  -70.9767 H         1 UNK         0.0837 
     73 H73       -82.3510   28.9031  -71.8734 H         1 UNK         0.0837 
     74 H74       -79.9815   29.1543  -71.0521 H         1 UNK         0.0685 
     75 H75       -80.0263   27.6873  -70.1034 H         1 UNK         0.0685 
     76 H76       -78.0743   26.1882  -70.0163 H         1 UNK         0.1434 
     77 H77       -74.3752   27.6462  -71.6269 H         1 UNK         0.1329 
     78 H78       -78.0463   29.6707  -72.5199 H         1 UNK         0.1335 
     79 H79       -75.8284   30.7941  -72.7798 H         1 UNK         0.0680 
     80 H80       -74.3444   29.8975  -72.5801 H         1 UNK         0.0680 
     81 H81       -74.4620   31.7263  -74.5531 H         1 UNK         0.1032 
     82 H82       -75.3053   31.4544  -76.0480 H         1 UNK         0.1032 
     83 H83       -73.4201   30.1757  -76.9709 H         1 UNK         0.0461 
     84 H84       -72.9943   33.8061  -77.6497 H         1 UNK         0.3453 
     85 H85       -74.3802   32.7876  -77.3743 H         1 UNK         0.3453 
     86 H86       -71.9374   29.1482  -75.7779 H         1 UNK         0.2984 
     87 H87       -69.8422   29.5689  -73.5422 H         1 UNK         0.0554 
     88 H88       -70.5208   28.3325  -71.4609 H         1 UNK         0.0847 
     89 H89       -72.2000   28.7891  -71.7401 H         1 UNK         0.0847 
     90 H90       -70.9928   30.0205  -71.4004 H         1 UNK         0.0847 
     91 H91       -71.9723   27.5254  -74.0633 H         1 UNK         0.3141 
     92 H92       -69.9279   25.8898  -76.3861 H         1 UNK         0.0743 
     93 H93       -70.9119   24.7503  -73.7160 H         1 UNK         0.0784 
     94 H94       -70.5377   23.8181  -75.1647 H         1 UNK         0.0784 
     95 H95       -69.2596   24.6706  -74.3134 H         1 UNK         0.0784 
     96 H96       -72.5421   25.2484  -75.5897 H         1 UNK         0.3213 
     97 H97       -74.5063   27.2916  -76.5865 H         1 UNK         0.0855 
     98 H98       -73.9424   28.2868  -78.7713 H         1 UNK         0.0814 
     99 H99       -75.2262   27.1104  -78.9874 H         1 UNK         0.0814 
    100 H100      -73.5720   26.7058  -79.4444 H         1 UNK         0.0814 
    101 H101      -75.2672   25.2223  -76.5641 H         1 UNK         0.3105 
    102 H102      -75.3505   22.6245  -77.8293 H         1 UNK         0.0547 
    103 H103      -73.1600   21.5441  -78.2348 H         1 UNK         0.0837 
    104 H104      -72.6311   21.9163  -76.6004 H         1 UNK         0.0837 
    105 H105      -73.9476   20.7745  -76.8696 H         1 UNK         0.0837 
    106 H106      -76.0725   22.6330  -75.7234 H         1 UNK         0.3020 
    107 H107      -75.5083   22.3509  -73.1016 H         1 UNK         0.1245 
    108 H108      -74.4986   25.1658  -72.4844 H         1 UNK         0.0781 
    109 H109      -73.7172   23.6762  -72.0183 H         1 UNK         0.0781 
    110 H110      -74.3235   25.9185  -69.9637 H         1 UNK         0.0836 
    111 H111      -75.7266   25.7114  -68.9517 H         1 UNK         0.0836 
    112 H112      -76.8750   24.9166  -73.4072 H         1 UNK         0.3022 
    113 H113      -79.4914   23.6117  -75.3757 H         1 UNK         0.0747 
    114 H114      -81.0243   24.2172  -73.5440 H         1 UNK         0.0793 
    115 H115      -80.1825   22.7362  -73.1275 H         1 UNK         0.0793 
    116 H116      -79.6919   24.2535  -72.3862 H         1 UNK         0.0793 
    117 H117      -79.5281   26.0725  -74.1547 H         1 UNK         0.3047 
    118 H118      -78.0816   28.0814  -74.9981 H         1 UNK         0.0822 
    119 H119      -77.9217   29.2100  -77.2274 H         1 UNK         0.0807 
    120 H120      -78.0201   27.6452  -78.0367 H         1 UNK         0.0807 
    121 H121      -76.6495   28.0248  -77.0146 H         1 UNK         0.0807 
    122 H122      -80.2650   28.4382  -75.2113 H         1 UNK         0.2946 
    123 H123      -82.2924   28.8751  -76.6823 H         1 UNK         0.1144 
    124 H124      -82.9285   27.5466  -78.6930 H         1 UNK         0.0793 
    125 H125      -84.2296   27.5287  -77.5131 H         1 UNK         0.0793 
    126 H126      -83.1905   26.1176  -77.6999 H         1 UNK         0.0793 
    127 H127      -82.3950   26.3554  -75.0863 H         1 UNK         0.2896 
@<TRIPOS>BOND
     1    1    2 1    
     2    1   67 1    
     3    1   68 1    
     4    1   69 1    
     5    2    3 2    
     6    2    4 am   BACKBONE|DICT|INTERRES
     7    4    5 1    
     8    4   70 1    
     9    5    6 1    
    10    5   65 1    
    11    5   71 1    
    12    6    7 1    
    13    6   72 1    
    14    6   73 1    
    15    7    8 1    
    16    8    9 1    
    17    8   74 1    
    18    8   75 1    
    19    9   10 ar   
    20    9   14 ar   
    21   10   11 ar   
    22   10   76 1    
    23   11   12 ar   
    24   11   48 1    
    25   12   13 ar   
    26   12   77 1    
    27   13   14 ar   
    28   13   15 1    
    29   14   78 1    
    30   15   16 1    
    31   15   79 1    
    32   15   80 1    
    33   16   17 1    
    34   17   18 1    
    35   17   81 1    
    36   17   82 1    
    37   18   19 1    
    38   18   22 1    
    39   18   83 1    
    40   19   20 am   BACKBONE|DICT|INTERRES
    41   19   21 2    
    42   20   84 1    
    43   20   85 1    
    44   22   23 am   BACKBONE|DICT|INTERRES
    45   22   86 1    
    46   23   24 2    
    47   23   25 1    
    48   25   26 1    
    49   25   27 1    
    50   25   87 1    
    51   26   88 1    
    52   26   89 1    
    53   26   90 1    
    54   27   28 am   BACKBONE|DICT|INTERRES
    55   27   91 1    
    56   28   29 2    
    57   28   30 1    
    58   30   31 1    
    59   30   32 1    
    60   30   92 1    
    61   31   93 1    
    62   31   94 1    
    63   31   95 1    
    64   32   33 am   BACKBONE|DICT|INTERRES
    65   32   96 1    
    66   33   34 2    
    67   33   35 1    
    68   35   36 1    
    69   35   37 1    
    70   35   97 1    
    71   36   98 1    
    72   36   99 1    
    73   36  100 1    
    74   37   38 am   BACKBONE|DICT|INTERRES
    75   37  101 1    
    76   38   39 2    
    77   38   40 1    
    78   40   41 1    
    79   40   42 1    
    80   40  102 1    
    81   41  103 1    
    82   41  104 1    
    83   41  105 1    
    84   42   43 am   BACKBONE|DICT|INTERRES
    85   42  106 1    
    86   43   44 2    
    87   43   45 1    
    88   45   46 1    
    89   45   49 1    
    90   45  107 1    
    91   46   47 1    
    92   46  108 1    
    93   46  109 1    
    94   47   48 1    
    95   48  110 1    
    96   48  111 1    
    97   49   50 am   BACKBONE|DICT|INTERRES
    98   49  112 1    
    99   50   51 2    
   100   50   52 1    
   101   52   53 1    
   102   52   54 1    
   103   52  113 1    
   104   53  114 1    
   105   53  115 1    
   106   53  116 1    
   107   54   55 am   BACKBONE|DICT|INTERRES
   108   54  117 1    
   109   55   56 2    
   110   55   57 1    
   111   57   58 1    
   112   57   59 1    
   113   57  118 1    
   114   58  119 1    
   115   58  120 1    
   116   58  121 1    
   117   59   60 am   BACKBONE|DICT|INTERRES
   118   59  122 1    
   119   60   61 2    
   120   60   62 1    
   121   62   63 1    
   122   62   64 1    
   123   62  123 1    
   124   63  124 1    
   125   63  125 1    
   126   63  126 1    
   127   64   65 am   BACKBONE|DICT|INTERRES
   128   64  127 1    
   129   65   66 2    
@<TRIPOS>SUBSTRUCTURE
     1 UNK         1 GROUP             0       ****    0 ROOT    
