@<TRIPOS>MOLECULE
3R135
127   129    1
SMALL
USER_CHARGES


@<TRIPOS>ATOM
      1 CA        -81.2034   24.6511  -67.3561 C.3       0 UNK        -0.1998 
      2 C         -81.1005   24.7356  -68.8718 C.2       0 UNK         0.4909 
      3 O         -81.8692   24.0786  -69.5753 O.2       0 UNK        -0.5240 
      4 N         -80.1641   25.5467  -69.3789 N.am      1 UNK        -0.4739 
      5 CA        -79.8903   25.7176  -70.8105 C.3       1 UNK         0.0864 
      6 C6        -79.0366   26.9792  -71.0883 C.3       11 UNK        -0.0881 
      7 S7        -79.8380   28.5142  -70.5076 S.3       11 UNK        -0.2682 
      8 C8        -80.3377   29.2979  -72.0832 C.3       11 UNK         0.0289 
      9 C9        -79.2073   29.8433  -72.9633 C.ar      11 UNK        -0.0687 
     10 C10       -79.5414   30.3676  -74.2169 C.ar      11 UNK        -0.0823 
     11 C11       -78.5580   30.8789  -75.0698 C.ar      11 UNK        -0.0830 
     12 C12       -77.2196   30.8532  -74.6684 C.ar      11 UNK        -0.1021 
     13 C13       -76.8673   30.3322  -73.4215 C.ar      11 UNK        -0.0753 
     14 C14       -77.8619   29.8447  -72.5702 C.ar      11 UNK        -0.0933 
     15 C15       -75.4084   30.2516  -73.0062 C.3       11 UNK         0.0166 
     16 S16       -74.7967   31.8289  -72.3493 S.3       11 UNK        -0.2615 
     17 C17       -73.3362   31.2745  -71.4020 C.3       11 UNK        -0.0865 
     18 CA        -72.0877   31.0427  -72.2917 C.3       10 UNK         0.0862 
     19 C         -70.7919   31.0146  -71.4370 C.2       10 UNK         0.5551 
     20 N         -70.1609   32.1627  -71.2336 N.am      10 UNK        -0.7319 
     21 O         -70.3786   29.9760  -70.9244 O.2       10 UNK        -0.5018 
     22 N         -72.2209   29.8187  -73.0942 N.am      10 UNK        -0.4509 
     23 C         -71.5559   29.5742  -74.2258 C.2       10 UNK         0.4899 
     24 O         -70.8184   30.3972  -74.7697 O.2       10 UNK        -0.4839 
     25 CA        -71.7301   28.1945  -74.8872 C.3       9 UNK         0.0222 
     26 CB        -70.5574   27.2631  -74.5253 C.3       9 UNK        -0.1966 
     27 N         -73.0196   27.5189  -74.6776 N.am      9 UNK        -0.4218 
     28 C         -73.5394   26.9800  -73.5645 C.2       9 UNK         0.5020 
     29 O         -73.0725   27.1474  -72.4377 O.2       9 UNK        -0.5274 
     30 CA        -74.7838   26.0845  -73.7403 C.3       8 UNK         0.0270 
     31 CB        -76.0817   26.8898  -73.5860 C.3       8 UNK        -0.1976 
     32 N         -74.8011   25.3805  -75.0262 N.am      8 UNK        -0.4313 
     33 C         -73.9542   24.3975  -75.3680 C.2       8 UNK         0.5041 
     34 O         -73.1172   23.9135  -74.6055 O.2       8 UNK        -0.5577 
     35 CA        -74.0371   23.8865  -76.8151 C.3       7 UNK         0.0284 
     36 CB        -75.1212   22.8046  -76.9612 C.3       7 UNK        -0.1958 
     37 N         -74.2885   24.9814  -77.7553 N.am      7 UNK        -0.4454 
     38 C         -73.3481   25.8385  -78.1805 C.2       7 UNK         0.5089 
     39 O         -72.1557   25.7469  -77.8896 O.2       7 UNK        -0.5125 
     40 CA        -73.8121   27.0065  -79.0709 C.3       6 UNK         0.0408 
     41 CB        -73.7062   26.6223  -80.5551 C.3       6 UNK        -0.1791 
     42 N         -75.1778   27.4530  -78.7823 N.am      6 UNK        -0.4762 
     43 C         -75.5624   28.0573  -77.6476 C.2       6 UNK         0.5007 
     44 O         -74.7915   28.3388  -76.7319 O.2       6 UNK        -0.5032 
     45 CA        -77.0706   28.3369  -77.4838 C.3       5 UNK         0.0783 
     46 C46       -77.4214   29.7360  -78.0422 C.3       11 UNK        -0.0857 
     47 S47       -79.1515   30.2015  -77.6991 S.3       11 UNK        -0.2512 
     48 C48       -78.9500   31.4762  -76.4141 C.3       11 UNK         0.0225 
     49 N         -77.8981   27.2779  -78.0794 N.am      5 UNK        -0.4615 
     50 C         -77.8755   25.9933  -77.7069 C.2       4 UNK         0.5053 
     51 O         -77.1558   25.5536  -76.8051 O.2       4 UNK        -0.5105 
     52 CA        -78.7346   25.0300  -78.5294 C.3       4 UNK         0.0263 
     53 CB        -78.0250   24.6622  -79.8466 C.3       4 UNK        -0.1981 
     54 N         -78.9656   23.8293  -77.7361 N.am      4 UNK        -0.4224 
     55 C         -79.9603   22.9510  -77.9073 C.2       3 UNK         0.4895 
     56 O         -80.7923   23.0284  -78.8124 O.2       3 UNK        -0.5091 
     57 CA        -80.0525   21.7826  -76.9045 C.3       3 UNK         0.0250 
     58 CB        -79.4669   20.5028  -77.5243 C.3       3 UNK        -0.1996 
     59 N         -79.3936   22.0335  -75.6164 N.am      3 UNK        -0.4254 
     60 C         -79.7708   22.9669  -74.7319 C.2       2 UNK         0.5004 
     61 O         -80.7392   23.7151  -74.8971 O.2       2 UNK        -0.5226 
     62 CA        -78.9082   23.1046  -73.4685 C.3       2 UNK         0.0269 
     63 CB        -77.4182   23.3119  -73.8129 C.3       2 UNK        -0.1926 
     64 N         -79.4161   24.2367  -72.6972 N.am      2 UNK        -0.4687 
     65 C         -79.2030   24.4669  -71.3989 C.2       1 UNK         0.5165 
     66 O         -78.4802   23.7622  -70.6887 O.2       1 UNK        -0.5079 
     67 H67       -80.4759   25.2948  -66.8618 H         1 UNK         0.0900 
     68 H68       -81.0305   23.6275  -67.0252 H         1 UNK         0.0900 
     69 H69       -82.1987   24.9520  -67.0300 H         1 UNK         0.0900 
     70 H70       -79.5552   26.0576  -68.7561 H         1 UNK         0.2959 
     71 H71       -80.8508   25.8374  -71.3175 H         1 UNK         0.1079 
     72 H72       -78.0634   26.8987  -70.6000 H         1 UNK         0.0837 
     73 H73       -78.8294   27.0710  -72.1561 H         1 UNK         0.0837 
     74 H74       -80.9234   28.5776  -72.6566 H         1 UNK         0.0685 
     75 H75       -81.0119   30.1219  -71.8457 H         1 UNK         0.0685 
     76 H76       -80.5763   30.3814  -74.5318 H         1 UNK         0.1434 
     77 H77       -76.4489   31.2377  -75.3223 H         1 UNK         0.1329 
     78 H78       -77.5690   29.4541  -71.6070 H         1 UNK         0.1335 
     79 H79       -75.2739   29.4737  -72.2543 H         1 UNK         0.0680 
     80 H80       -74.8069   29.9599  -73.8680 H         1 UNK         0.0680 
     81 H81       -73.5781   30.3813  -70.8230 H         1 UNK         0.1032 
     82 H82       -73.1366   32.0554  -70.6652 H         1 UNK         0.1032 
     83 H83       -72.0075   31.8883  -72.9786 H         1 UNK         0.0461 
     84 H84       -69.3259   32.1702  -70.6686 H         1 UNK         0.3453 
     85 H85       -70.4967   33.0217  -71.6415 H         1 UNK         0.3453 
     86 H86       -72.7052   29.0370  -72.6650 H         1 UNK         0.2984 
     87 H87       -71.6822   28.3694  -75.9633 H         1 UNK         0.0554 
     88 H88       -70.6235   26.3177  -75.0647 H         1 UNK         0.0847 
     89 H89       -70.5297   27.0406  -73.4581 H         1 UNK         0.0847 
     90 H90       -69.6015   27.7193  -74.7859 H         1 UNK         0.0847 
     91 H91       -73.5934   27.4631  -75.5149 H         1 UNK         0.3141 
     92 H92       -74.7593   25.3308  -72.9504 H         1 UNK         0.0743 
     93 H93       -76.1448   27.6946  -74.3176 H         1 UNK         0.0784 
     94 H94       -76.9642   26.2637  -73.7084 H         1 UNK         0.0784 
     95 H95       -76.1436   27.3321  -72.5922 H         1 UNK         0.0784 
     96 H96       -75.5095   25.6604  -75.6978 H         1 UNK         0.3213 
     97 H97       -73.0755   23.4302  -77.0615 H         1 UNK         0.0855 
     98 H98       -76.1119   23.1764  -76.7052 H         1 UNK         0.0814 
     99 H99       -74.9140   21.9598  -76.3030 H         1 UNK         0.0814 
    100 H100      -75.1613   22.4183  -77.9797 H         1 UNK         0.0814 
    101 H101      -75.2519   25.1584  -78.0017 H         1 UNK         0.3105 
    102 H102      -73.1388   27.8468  -78.8879 H         1 UNK         0.0547 
    103 H103      -72.6914   26.3091  -80.8047 H         1 UNK         0.0837 
    104 H104      -74.3727   25.7971  -80.8094 H         1 UNK         0.0837 
    105 H105      -73.9505   27.4646  -81.2024 H         1 UNK         0.0837 
    106 H106      -75.8784   27.2639  -79.4845 H         1 UNK         0.3020 
    107 H107      -77.2736   28.3395  -76.4102 H         1 UNK         0.1245 
    108 H108      -76.7560   30.4966  -77.6300 H         1 UNK         0.0781 
    109 H109      -77.2718   29.7651  -79.1232 H         1 UNK         0.0781 
    110 H110      -79.8920   32.0168  -76.3092 H         1 UNK         0.0836 
    111 H111      -78.2167   32.2166  -76.7379 H         1 UNK         0.0836 
    112 H112      -78.5225   27.5674  -78.8186 H         1 UNK         0.3022 
    113 H113      -79.6919   25.5111  -78.7412 H         1 UNK         0.0747 
    114 H114      -78.6336   23.9890  -80.4506 H         1 UNK         0.0793 
    115 H115      -77.8311   25.5474  -80.4535 H         1 UNK         0.0793 
    116 H116      -77.0680   24.1710  -79.6654 H         1 UNK         0.0793 
    117 H117      -78.3478   23.7352  -76.9408 H         1 UNK         0.3047 
    118 H118      -81.1131   21.6131  -76.7066 H         1 UNK         0.0822 
    119 H119      -79.6064   19.6429  -76.8689 H         1 UNK         0.0807 
    120 H120      -78.3998   20.6038  -77.7267 H         1 UNK         0.0807 
    121 H121      -79.9565   20.2677  -78.4706 H         1 UNK         0.0807 
    122 H122      -78.5957   21.4531  -75.4010 H         1 UNK         0.2946 
    123 H123      -79.0268   22.1938  -72.8769 H         1 UNK         0.1144 
    124 H124      -76.9803   22.4135  -74.2482 H         1 UNK         0.0793 
    125 H125      -76.8255   23.5528  -72.9305 H         1 UNK         0.0793 
    126 H126      -77.2874   24.1188  -74.5322 H         1 UNK         0.0793 
    127 H127      -80.0655   24.8150  -73.2180 H         1 UNK         0.2896 
@<TRIPOS>BOND
     1    1    2 1    
     2    1   67 1    
     3    1   68 1    
     4    1   69 1    
     5    2    3 2    
     6    2    4 am   BACKBONE|DICT|INTERRES
     7    4    5 1    
     8    4   70 1    
     9    5    6 1    
    10    5   65 1    
    11    5   71 1    
    12    6    7 1    
    13    6   72 1    
    14    6   73 1    
    15    7    8 1    
    16    8    9 1    
    17    8   74 1    
    18    8   75 1    
    19    9   10 ar   
    20    9   14 ar   
    21   10   11 ar   
    22   10   76 1    
    23   11   12 ar   
    24   11   48 1    
    25   12   13 ar   
    26   12   77 1    
    27   13   14 ar   
    28   13   15 1    
    29   14   78 1    
    30   15   16 1    
    31   15   79 1    
    32   15   80 1    
    33   16   17 1    
    34   17   18 1    
    35   17   81 1    
    36   17   82 1    
    37   18   19 1    
    38   18   22 1    
    39   18   83 1    
    40   19   20 am   BACKBONE|DICT|INTERRES
    41   19   21 2    
    42   20   84 1    
    43   20   85 1    
    44   22   23 am   BACKBONE|DICT|INTERRES
    45   22   86 1    
    46   23   24 2    
    47   23   25 1    
    48   25   26 1    
    49   25   27 1    
    50   25   87 1    
    51   26   88 1    
    52   26   89 1    
    53   26   90 1    
    54   27   28 am   BACKBONE|DICT|INTERRES
    55   27   91 1    
    56   28   29 2    
    57   28   30 1    
    58   30   31 1    
    59   30   32 1    
    60   30   92 1    
    61   31   93 1    
    62   31   94 1    
    63   31   95 1    
    64   32   33 am   BACKBONE|DICT|INTERRES
    65   32   96 1    
    66   33   34 2    
    67   33   35 1    
    68   35   36 1    
    69   35   37 1    
    70   35   97 1    
    71   36   98 1    
    72   36   99 1    
    73   36  100 1    
    74   37   38 am   BACKBONE|DICT|INTERRES
    75   37  101 1    
    76   38   39 2    
    77   38   40 1    
    78   40   41 1    
    79   40   42 1    
    80   40  102 1    
    81   41  103 1    
    82   41  104 1    
    83   41  105 1    
    84   42   43 am   BACKBONE|DICT|INTERRES
    85   42  106 1    
    86   43   44 2    
    87   43   45 1    
    88   45   46 1    
    89   45   49 1    
    90   45  107 1    
    91   46   47 1    
    92   46  108 1    
    93   46  109 1    
    94   47   48 1    
    95   48  110 1    
    96   48  111 1    
    97   49   50 am   BACKBONE|DICT|INTERRES
    98   49  112 1    
    99   50   51 2    
   100   50   52 1    
   101   52   53 1    
   102   52   54 1    
   103   52  113 1    
   104   53  114 1    
   105   53  115 1    
   106   53  116 1    
   107   54   55 am   BACKBONE|DICT|INTERRES
   108   54  117 1    
   109   55   56 2    
   110   55   57 1    
   111   57   58 1    
   112   57   59 1    
   113   57  118 1    
   114   58  119 1    
   115   58  120 1    
   116   58  121 1    
   117   59   60 am   BACKBONE|DICT|INTERRES
   118   59  122 1    
   119   60   61 2    
   120   60   62 1    
   121   62   63 1    
   122   62   64 1    
   123   62  123 1    
   124   63  124 1    
   125   63  125 1    
   126   63  126 1    
   127   64   65 am   BACKBONE|DICT|INTERRES
   128   64  127 1    
   129   65   66 2    
@<TRIPOS>SUBSTRUCTURE
     1 UNK         1 GROUP             0       ****    0 ROOT    
