@<TRIPOS>MOLECULE
3R135
127   129    1
SMALL
USER_CHARGES


@<TRIPOS>ATOM
      1 CA        -77.9545   22.4691  -70.9814 C.3       0 UNK        -0.1998 
      2 C         -79.1450   23.2365  -71.5345 C.2       0 UNK         0.4909 
      3 O         -79.8303   22.7396  -72.4289 O.2       0 UNK        -0.5240 
      4 N         -79.3901   24.4494  -71.0211 N.am      1 UNK        -0.4739 
      5 CA        -80.4594   25.3563  -71.4539 C.3       1 UNK         0.0864 
      6 C6        -80.5832   26.6122  -70.5493 C.3       11 UNK        -0.0881 
      7 S7        -78.9978   27.4253  -70.1278 S.3       11 UNK        -0.2682 
      8 C8        -79.4576   29.1877  -70.1125 C.3       11 UNK         0.0289 
      9 C9        -78.9035   29.9181  -71.3259 C.ar      11 UNK        -0.0687 
     10 C10       -79.6774   30.0833  -72.4784 C.ar      11 UNK        -0.0823 
     11 C11       -79.1632   30.7700  -73.5846 C.ar      11 UNK        -0.0830 
     12 C12       -77.8633   31.2827  -73.5329 C.ar      11 UNK        -0.1021 
     13 C13       -77.0747   31.1054  -72.3944 C.ar      11 UNK        -0.0753 
     14 C14       -77.6073   30.4385  -71.2876 C.ar      11 UNK        -0.0933 
     15 C15       -75.6435   31.6205  -72.3719 C.3       11 UNK         0.0166 
     16 S16       -74.4883   30.3824  -73.0433 S.3       11 UNK        -0.2615 
     17 C17       -74.5472   29.1078  -71.7369 C.3       11 UNK        -0.0865 
     18 CA        -73.1926   28.3868  -71.5277 C.3       10 UNK         0.0862 
     19 C         -73.2496   27.4648  -70.2708 C.2       10 UNK         0.5551 
     20 N         -73.0682   26.1549  -70.3882 N.am      10 UNK        -0.7319 
     21 O         -73.4589   27.9544  -69.1639 O.2       10 UNK        -0.5018 
     22 N         -72.7342   27.7417  -72.7690 N.am      10 UNK        -0.4509 
     23 C         -71.4942   27.2856  -72.9879 C.2       10 UNK         0.4899 
     24 O         -70.5753   27.3656  -72.1728 O.2       10 UNK        -0.4839 
     25 CA        -71.2350   26.6170  -74.3433 C.3       9 UNK         0.0222 
     26 CB        -71.5208   25.1085  -74.2576 C.3       9 UNK        -0.1966 
     27 N         -72.0546   27.1961  -75.4057 N.am      9 UNK        -0.4218 
     28 C         -71.6996   28.2263  -76.1840 C.2       9 UNK         0.5020 
     29 O         -70.6450   28.8523  -76.0576 O.2       9 UNK        -0.5274 
     30 CA        -72.6910   28.5883  -77.3102 C.3       8 UNK         0.0270 
     31 CB        -72.0588   29.4445  -78.4275 C.3       8 UNK        -0.1976 
     32 N         -73.3558   27.4012  -77.8661 N.am      8 UNK        -0.4313 
     33 C         -72.7785   26.3325  -78.4403 C.2       8 UNK         0.5041 
     34 O         -71.5804   26.2611  -78.7176 O.2       8 UNK        -0.5577 
     35 CA        -73.6705   25.1056  -78.7076 C.3       7 UNK         0.0284 
     36 CB        -73.3790   24.0093  -77.6690 C.3       7 UNK        -0.1958 
     37 N         -75.1038   25.4066  -78.6886 N.am      7 UNK        -0.4454 
     38 C         -75.7476   26.0654  -79.6611 C.2       7 UNK         0.5089 
     39 O         -75.2160   26.4335  -80.7091 O.2       7 UNK        -0.5125 
     40 CA        -77.2271   26.3965  -79.4098 C.3       6 UNK         0.0408 
     41 CB        -78.1156   25.1995  -79.7820 C.3       6 UNK        -0.1791 
     42 N         -77.5111   26.8112  -78.0321 N.am      6 UNK        -0.4762 
     43 C         -76.9973   27.8948  -77.4268 C.2       6 UNK         0.5007 
     44 O         -76.1768   28.6480  -77.9505 O.2       6 UNK        -0.5032 
     45 CA        -77.4503   28.1549  -75.9764 C.3       5 UNK         0.0783 
     46 C46       -78.9442   28.5703  -75.9198 C.3       11 UNK        -0.0857 
     47 S47       -79.1992   30.3247  -76.3422 S.3       11 UNK        -0.2512 
     48 C48       -80.0119   30.9568  -74.8363 C.3       11 UNK         0.0225 
     49 N         -77.1828   26.9963  -75.1243 N.am      5 UNK        -0.4615 
     50 C         -75.9844   26.4476  -74.8831 C.2       4 UNK         0.5053 
     51 O         -74.9094   26.9181  -75.2565 O.2       4 UNK        -0.5105 
     52 CA        -75.9889   25.1100  -74.1286 C.3       4 UNK         0.0263 
     53 CB        -75.9877   25.3387  -72.6098 C.3       4 UNK        -0.1981 
     54 N         -77.1244   24.2661  -74.5103 N.am      4 UNK        -0.4224 
     55 C         -77.2794   23.7099  -75.7215 C.2       3 UNK         0.4895 
     56 O         -76.4570   23.8063  -76.6321 O.2       3 UNK        -0.5091 
     57 CA        -78.5980   22.9629  -75.9740 C.3       3 UNK         0.0250 
     58 CB        -78.5394   21.5382  -75.4008 C.3       3 UNK        -0.1996 
     59 N         -79.7505   23.6832  -75.4249 N.am      3 UNK        -0.4254 
     60 C         -80.2198   24.8290  -75.9435 C.2       2 UNK         0.5004 
     61 O         -79.7583   25.3544  -76.9554 O.2       2 UNK        -0.5226 
     62 CA        -81.3656   25.5386  -75.1989 C.3       2 UNK         0.0269 
     63 CB        -82.7257   25.0798  -75.7471 C.3       2 UNK        -0.1926 
     64 N         -81.3396   25.3573  -73.7445 N.am      2 UNK        -0.4687 
     65 C         -80.3232   25.7146  -72.9469 C.2       1 UNK         0.5165 
     66 O         -79.2947   26.2526  -73.3577 O.2       1 UNK        -0.5079 
     67 H67       -78.2923   21.5501  -70.5032 H         1 UNK         0.0900 
     68 H68       -77.4001   23.0518  -70.2457 H         1 UNK         0.0900 
     69 H69       -77.2721   22.2019  -71.7879 H         1 UNK         0.0900 
     70 H70       -78.7756   24.8306  -70.3154 H         1 UNK         0.2959 
     71 H71       -81.3913   24.7976  -71.3411 H         1 UNK         0.1079 
     72 H72       -81.2673   27.3349  -70.9980 H         1 UNK         0.0837 
     73 H73       -81.0493   26.3237  -69.6059 H         1 UNK         0.0837 
     74 H74       -80.5400   29.3083  -70.0519 H         1 UNK         0.0685 
     75 H75       -79.0593   29.6395  -69.2027 H         1 UNK         0.0685 
     76 H76       -80.6790   29.6771  -72.5110 H         1 UNK         0.1434 
     77 H77       -77.4570   31.8021  -74.3903 H         1 UNK         0.1329 
     78 H78       -77.0095   30.3080  -70.3967 H         1 UNK         0.1335 
     79 H79       -75.5684   32.5314  -72.9678 H         1 UNK         0.0680 
     80 H80       -75.3476   31.8953  -71.3583 H         1 UNK         0.0680 
     81 H81       -75.3372   28.3955  -71.9819 H         1 UNK         0.1032 
     82 H82       -74.8483   29.5863  -70.8041 H         1 UNK         0.1032 
     83 H83       -72.4538   29.1538  -71.2872 H         1 UNK         0.0461 
     84 H84       -72.8632   25.7454  -71.2838 H         1 UNK         0.3453 
     85 H85       -73.1033   25.5775  -69.5633 H         1 UNK         0.3453 
     86 H86       -73.4189   27.6644  -73.5080 H         1 UNK         0.2984 
     87 H87       -70.1788   26.7486  -74.5881 H         1 UNK         0.0554 
     88 H88       -70.9138   24.6395  -73.4819 H         1 UNK         0.0847 
     89 H89       -71.2846   24.6085  -75.1971 H         1 UNK         0.0847 
     90 H90       -72.5661   24.9040  -74.0234 H         1 UNK         0.0847 
     91 H91       -72.9889   26.8177  -75.5343 H         1 UNK         0.3141 
     92 H92       -73.4772   29.1823  -76.8412 H         1 UNK         0.0743 
     93 H93       -71.6816   30.3876  -78.0304 H         1 UNK         0.0784 
     94 H94       -71.2214   28.9344  -78.9045 H         1 UNK         0.0784 
     95 H95       -72.7889   29.6872  -79.1996 H         1 UNK         0.0784 
     96 H96       -74.3544   27.3608  -77.6987 H         1 UNK         0.3213 
     97 H97       -73.4107   24.7202  -79.6960 H         1 UNK         0.0855 
     98 H98       -72.3227   23.7369  -77.6707 H         1 UNK         0.0814 
     99 H99       -73.9473   23.1030  -77.8787 H         1 UNK         0.0814 
    100 H100      -73.6312   24.3351  -76.6590 H         1 UNK         0.0814 
    101 H101      -75.6338   25.0703  -77.8880 H         1 UNK         0.3105 
    102 H102      -77.4928   27.2309  -80.0619 H         1 UNK         0.0547 
    103 H103      -77.9292   24.8760  -80.8069 H         1 UNK         0.0837 
    104 H104      -77.9332   24.3444  -79.1299 H         1 UNK         0.0837 
    105 H105      -79.1732   25.4536  -79.7105 H         1 UNK         0.0837 
    106 H106      -78.2009   26.2534  -77.5319 H         1 UNK         0.3020 
    107 H107      -76.8430   28.9720  -75.5787 H         1 UNK         0.1245 
    108 H108      -79.3398   28.3946  -74.9195 H         1 UNK         0.0781 
    109 H109      -79.5632   27.9647  -76.5825 H         1 UNK         0.0781 
    110 H110      -80.9803   30.4656  -74.7283 H         1 UNK         0.0836 
    111 H111      -80.2196   32.0197  -74.9669 H         1 UNK         0.0836 
    112 H112      -77.9921   26.5807  -74.6701 H         1 UNK         0.3022 
    113 H113      -75.0730   24.5782  -74.3940 H         1 UNK         0.0747 
    114 H114      -75.1377   25.9515  -72.3140 H         1 UNK         0.0793 
    115 H115      -76.8889   25.8511  -72.2711 H         1 UNK         0.0793 
    116 H116      -75.9078   24.3982  -72.0660 H         1 UNK         0.0793 
    117 H117      -77.8843   24.1950  -73.8494 H         1 UNK         0.3047 
    118 H118      -78.7316   22.8837  -77.0552 H         1 UNK         0.0822 
    119 H119      -79.4596   20.9905  -75.6045 H         1 UNK         0.0807 
    120 H120      -78.3803   21.5369  -74.3224 H         1 UNK         0.0807 
    121 H121      -77.7208   20.9738  -75.8495 H         1 UNK         0.0807 
    122 H122      -80.1494   23.3301  -74.5625 H         1 UNK         0.2946 
    123 H123      -81.2633   26.6076  -75.3957 H         1 UNK         0.1144 
    124 H124      -83.5449   25.6469  -75.3046 H         1 UNK         0.0793 
    125 H125      -82.9041   24.0215  -75.5524 H         1 UNK         0.0793 
    126 H126      -82.7800   25.2261  -76.8270 H         1 UNK         0.0793 
    127 H127      -82.1384   24.8919  -73.3372 H         1 UNK         0.2896 
@<TRIPOS>BOND
     1    1    2 1    
     2    1   67 1    
     3    1   68 1    
     4    1   69 1    
     5    2    3 2    
     6    2    4 am   BACKBONE|DICT|INTERRES
     7    4    5 1    
     8    4   70 1    
     9    5    6 1    
    10    5   65 1    
    11    5   71 1    
    12    6    7 1    
    13    6   72 1    
    14    6   73 1    
    15    7    8 1    
    16    8    9 1    
    17    8   74 1    
    18    8   75 1    
    19    9   10 ar   
    20    9   14 ar   
    21   10   11 ar   
    22   10   76 1    
    23   11   12 ar   
    24   11   48 1    
    25   12   13 ar   
    26   12   77 1    
    27   13   14 ar   
    28   13   15 1    
    29   14   78 1    
    30   15   16 1    
    31   15   79 1    
    32   15   80 1    
    33   16   17 1    
    34   17   18 1    
    35   17   81 1    
    36   17   82 1    
    37   18   19 1    
    38   18   22 1    
    39   18   83 1    
    40   19   20 am   BACKBONE|DICT|INTERRES
    41   19   21 2    
    42   20   84 1    
    43   20   85 1    
    44   22   23 am   BACKBONE|DICT|INTERRES
    45   22   86 1    
    46   23   24 2    
    47   23   25 1    
    48   25   26 1    
    49   25   27 1    
    50   25   87 1    
    51   26   88 1    
    52   26   89 1    
    53   26   90 1    
    54   27   28 am   BACKBONE|DICT|INTERRES
    55   27   91 1    
    56   28   29 2    
    57   28   30 1    
    58   30   31 1    
    59   30   32 1    
    60   30   92 1    
    61   31   93 1    
    62   31   94 1    
    63   31   95 1    
    64   32   33 am   BACKBONE|DICT|INTERRES
    65   32   96 1    
    66   33   34 2    
    67   33   35 1    
    68   35   36 1    
    69   35   37 1    
    70   35   97 1    
    71   36   98 1    
    72   36   99 1    
    73   36  100 1    
    74   37   38 am   BACKBONE|DICT|INTERRES
    75   37  101 1    
    76   38   39 2    
    77   38   40 1    
    78   40   41 1    
    79   40   42 1    
    80   40  102 1    
    81   41  103 1    
    82   41  104 1    
    83   41  105 1    
    84   42   43 am   BACKBONE|DICT|INTERRES
    85   42  106 1    
    86   43   44 2    
    87   43   45 1    
    88   45   46 1    
    89   45   49 1    
    90   45  107 1    
    91   46   47 1    
    92   46  108 1    
    93   46  109 1    
    94   47   48 1    
    95   48  110 1    
    96   48  111 1    
    97   49   50 am   BACKBONE|DICT|INTERRES
    98   49  112 1    
    99   50   51 2    
   100   50   52 1    
   101   52   53 1    
   102   52   54 1    
   103   52  113 1    
   104   53  114 1    
   105   53  115 1    
   106   53  116 1    
   107   54   55 am   BACKBONE|DICT|INTERRES
   108   54  117 1    
   109   55   56 2    
   110   55   57 1    
   111   57   58 1    
   112   57   59 1    
   113   57  118 1    
   114   58  119 1    
   115   58  120 1    
   116   58  121 1    
   117   59   60 am   BACKBONE|DICT|INTERRES
   118   59  122 1    
   119   60   61 2    
   120   60   62 1    
   121   62   63 1    
   122   62   64 1    
   123   62  123 1    
   124   63  124 1    
   125   63  125 1    
   126   63  126 1    
   127   64   65 am   BACKBONE|DICT|INTERRES
   128   64  127 1    
   129   65   66 2    
@<TRIPOS>SUBSTRUCTURE
     1 UNK         1 GROUP             0       ****    0 ROOT    
