@<TRIPOS>MOLECULE
3R135
127   129    1
SMALL
USER_CHARGES


@<TRIPOS>ATOM
      1 CA        -81.3051   24.8731  -72.9137 C.3       0 UNK        -0.1998 
      2 C         -82.6234   25.5714  -72.5894 C.2       0 UNK         0.4909 
      3 O         -83.4431   24.9960  -71.8767 O.2       0 UNK        -0.5240 
      4 N         -82.8923   26.7963  -73.0711 N.am      1 UNK        -0.4739 
      5 CA        -82.0747   27.6516  -73.9497 C.3       1 UNK         0.0864 
      6 C6        -80.6807   27.9878  -73.3502 C.3       11 UNK        -0.0881 
      7 S7        -80.1037   29.6730  -73.7536 S.3       11 UNK        -0.2682 
      8 C8        -79.2982   30.1745  -72.1972 C.3       11 UNK         0.0289 
      9 C9        -78.0632   29.3328  -71.9090 C.ar      11 UNK        -0.0687 
     10 C10       -78.1545   28.2098  -71.0810 C.ar      11 UNK        -0.0823 
     11 C11       -77.0365   27.4055  -70.8475 C.ar      11 UNK        -0.0830 
     12 C12       -75.8119   27.7482  -71.4246 C.ar      11 UNK        -0.1021 
     13 C13       -75.7066   28.8699  -72.2515 C.ar      11 UNK        -0.0753 
     14 C14       -76.8335   29.6632  -72.4870 C.ar      11 UNK        -0.0933 
     15 C15       -74.3905   29.1704  -72.9464 C.3       11 UNK         0.0166 
     16 S16       -73.1626   29.8931  -71.8135 S.3       11 UNK        -0.2615 
     17 C17       -73.1576   31.6421  -72.3476 C.3       11 UNK        -0.0865 
     18 CA        -72.0751   31.9557  -73.4177 C.3       10 UNK         0.0862 
     19 C         -70.6359   31.9917  -72.8199 C.2       10 UNK         0.5551 
     20 N         -69.6969   31.1678  -73.2728 N.am      10 UNK        -0.7319 
     21 O         -70.3635   32.7992  -71.9348 O.2       10 UNK        -0.5018 
     22 N         -72.2299   31.0851  -74.5902 N.am      10 UNK        -0.4509 
     23 C         -71.8045   31.3487  -75.8289 C.2       10 UNK         0.4899 
     24 O         -71.3076   32.4236  -76.1682 O.2       10 UNK        -0.4839 
     25 CA        -71.9720   30.2104  -76.8566 C.3       9 UNK         0.0222 
     26 CB        -70.9852   30.3301  -78.0370 C.3       9 UNK        -0.1966 
     27 N         -71.9157   28.8589  -76.2753 N.am      9 UNK        -0.4218 
     28 C         -70.8924   28.3075  -75.5975 C.2       9 UNK         0.5020 
     29 O         -69.8770   28.9298  -75.2816 O.2       9 UNK        -0.5274 
     30 CA        -71.0054   26.8246  -75.1807 C.3       8 UNK         0.0270 
     31 CB        -71.0848   26.6889  -73.6508 C.3       8 UNK        -0.1976 
     32 N         -72.1367   26.1181  -75.7901 N.am      8 UNK        -0.4313 
     33 C         -72.2071   25.7706  -77.0856 C.2       8 UNK         0.5041 
     34 O         -71.2707   25.9052  -77.8739 O.2       8 UNK        -0.5577 
     35 CA        -73.5463   25.2152  -77.6140 C.3       7 UNK         0.0284 
     36 CB        -73.4600   23.6918  -77.7984 C.3       7 UNK        -0.1958 
     37 N         -74.7085   25.5277  -76.7768 N.am      7 UNK        -0.4454 
     38 C         -75.1330   26.7569  -76.4445 C.2       7 UNK         0.5089 
     39 O         -74.6182   27.7933  -76.8660 O.2       7 UNK        -0.5125 
     40 CA        -76.2732   26.8499  -75.4134 C.3       6 UNK         0.0408 
     41 CB        -77.5976   27.1757  -76.1165 C.3       6 UNK        -0.1791 
     42 N         -76.4226   25.6532  -74.5706 N.am      6 UNK        -0.4762 
     43 C         -75.4656   25.1646  -73.7595 C.2       6 UNK         0.5007 
     44 O         -74.3504   25.6777  -73.6505 O.2       6 UNK        -0.5032 
     45 CA        -75.7429   23.8506  -72.9978 C.3       5 UNK         0.0783 
     46 C46       -75.9397   24.0708  -71.4762 C.3       11 UNK        -0.0857 
     47 S47       -77.5890   24.7008  -70.9967 S.3       11 UNK        -0.2512 
     48 C48       -77.1658   26.1585  -69.9884 C.3       11 UNK         0.0225 
     49 N         -76.8091   23.0338  -73.5825 N.am      5 UNK        -0.4615 
     50 C         -76.7671   22.4547  -74.7882 C.2       4 UNK         0.5053 
     51 O         -75.8052   22.5442  -75.5530 O.2       4 UNK        -0.5105 
     52 CA        -78.0147   21.6729  -75.2423 C.3       4 UNK         0.0263 
     53 CB        -79.0665   21.4485  -74.1300 C.3       4 UNK        -0.1981 
     54 N         -78.6321   22.3026  -76.4144 N.am      4 UNK        -0.4224 
     55 C         -79.0825   23.5634  -76.5021 C.2       3 UNK         0.4895 
     56 O         -79.0437   24.3684  -75.5688 O.2       3 UNK        -0.5091 
     57 CA        -79.6322   24.0262  -77.8674 C.3       3 UNK         0.0250 
     58 CB        -79.8899   22.8834  -78.8776 C.3       3 UNK        -0.1996 
     59 N         -80.8218   24.8719  -77.7162 N.am      3 UNK        -0.4254 
     60 C         -82.0036   24.5179  -77.1915 C.2       2 UNK         0.5004 
     61 O         -82.2722   23.3891  -76.7747 O.2       2 UNK        -0.5226 
     62 CA        -83.0601   25.6322  -77.0933 C.3       2 UNK         0.0269 
     63 CB        -84.4874   25.0933  -77.3005 C.3       2 UNK        -0.1926 
     64 N         -82.9855   26.2905  -75.7898 N.am      2 UNK        -0.4687 
     65 C         -82.0269   27.1495  -75.4140 C.2       1 UNK         0.5165 
     66 O         -81.1463   27.5434  -76.1796 O.2       1 UNK        -0.5079 
     67 H67       -81.0422   24.9611  -73.9654 H         1 UNK         0.0900 
     68 H68       -80.4944   25.2823  -72.3120 H         1 UNK         0.0900 
     69 H69       -81.3770   23.8092  -72.6899 H         1 UNK         0.0900 
     70 H70       -83.7811   27.2057  -72.8159 H         1 UNK         0.2959 
     71 H71       -82.6378   28.5850  -74.0031 H         1 UNK         0.1079 
     72 H72       -80.7403   27.9171  -72.2645 H         1 UNK         0.0837 
     73 H73       -79.9212   27.2655  -73.6523 H         1 UNK         0.0837 
     74 H74       -79.0169   31.2261  -72.2689 H         1 UNK         0.0685 
     75 H75       -80.0126   30.1065  -71.3753 H         1 UNK         0.0685 
     76 H76       -79.1020   27.9464  -70.6323 H         1 UNK         0.1434 
     77 H77       -74.9425   27.1273  -71.2581 H         1 UNK         0.1329 
     78 H78       -76.7631   30.5218  -73.1406 H         1 UNK         0.1335 
     79 H79       -74.5580   29.8192  -73.8068 H         1 UNK         0.0680 
     80 H80       -73.9869   28.2451  -73.3539 H         1 UNK         0.0680 
     81 H81       -73.0209   32.2725  -71.4669 H         1 UNK         0.1032 
     82 H82       -74.1448   31.9037  -72.7313 H         1 UNK         0.1032 
     83 H83       -72.2632   32.9764  -73.7562 H         1 UNK         0.0461 
     84 H84       -68.7723   31.2135  -72.8760 H         1 UNK         0.3453 
     85 H85       -69.8959   30.4934  -74.0038 H         1 UNK         0.3453 
     86 H86       -72.5818   30.1605  -74.3963 H         1 UNK         0.2984 
     87 H87       -72.9800   30.3184  -77.2598 H         1 UNK         0.0554 
     88 H88       -71.1342   29.5291  -78.7612 H         1 UNK         0.0847 
     89 H89       -69.9482   30.2901  -77.7016 H         1 UNK         0.0847 
     90 H90       -71.1190   31.2733  -78.5681 H         1 UNK         0.0847 
     91 H91       -72.7348   28.2857  -76.4600 H         1 UNK         0.3141 
     92 H92       -70.0868   26.3349  -75.5107 H         1 UNK         0.0743 
     93 H93       -71.0914   25.6424  -73.3455 H         1 UNK         0.0784 
     94 H94       -70.2259   27.1597  -73.1702 H         1 UNK         0.0784 
     95 H95       -71.9793   27.1587  -73.2449 H         1 UNK         0.0784 
     96 H96       -72.9422   25.9540  -75.1939 H         1 UNK         0.3213 
     97 H97       -73.7183   25.6713  -78.5911 H         1 UNK         0.0855 
     98 H98       -72.6291   23.4225  -78.4520 H         1 UNK         0.0814 
     99 H99       -74.3686   23.2929  -78.2500 H         1 UNK         0.0814 
    100 H100      -73.3069   23.1796  -76.8474 H         1 UNK         0.0814 
    101 H101      -75.1844   24.7381  -76.3583 H         1 UNK         0.3105 
    102 H102      -76.0408   27.6823  -74.7505 H         1 UNK         0.0547 
    103 H103      -78.4183   27.2570  -75.4060 H         1 UNK         0.0837 
    104 H104      -77.8631   26.4177  -76.8520 H         1 UNK         0.0837 
    105 H105      -77.5345   28.1288  -76.6429 H         1 UNK         0.0837 
    106 H106      -77.3064   25.1580  -74.6391 H         1 UNK         0.3020 
    107 H107      -74.8236   23.2704  -73.1096 H         1 UNK         0.1245 
    108 H108      -75.1550   24.7171  -71.0797 H         1 UNK         0.0781 
    109 H109      -75.8055   23.1177  -70.9624 H         1 UNK         0.0781 
    110 H110      -76.2498   25.9810  -69.4231 H         1 UNK         0.0836 
    111 H111      -77.9503   26.3045  -69.2442 H         1 UNK         0.0836 
    112 H112      -77.6529   22.9553  -73.0333 H         1 UNK         0.3022 
    113 H113      -77.6588   20.6929  -75.5636 H         1 UNK         0.0747 
    114 H114      -79.8890   20.8322  -74.4933 H         1 UNK         0.0793 
    115 H115      -78.6336   20.9277  -73.2749 H         1 UNK         0.0793 
    116 H116      -79.4973   22.3832  -73.7696 H         1 UNK         0.0793 
    117 H117      -78.6753   21.7294  -77.2449 H         1 UNK         0.3047 
    118 H118      -78.8608   24.6679  -78.2948 H         1 UNK         0.0822 
    119 H119      -80.5900   22.1419  -78.4903 H         1 UNK         0.0807 
    120 H120      -78.9661   22.3664  -79.1396 H         1 UNK         0.0807 
    121 H121      -80.3053   23.2712  -79.8079 H         1 UNK         0.0807 
    122 H122      -80.6830   25.8524  -77.9230 H         1 UNK         0.2946 
    123 H123      -82.8645   26.3683  -77.8769 H         1 UNK         0.1144 
    124 H124      -84.5732   24.5788  -78.2585 H         1 UNK         0.0793 
    125 H125      -84.7725   24.3833  -76.5229 H         1 UNK         0.0793 
    126 H126      -85.2196   25.9010  -77.3007 H         1 UNK         0.0793 
    127 H127      -83.6620   26.0020  -75.0975 H         1 UNK         0.2896 
@<TRIPOS>BOND
     1    1    2 1    
     2    1   67 1    
     3    1   68 1    
     4    1   69 1    
     5    2    3 2    
     6    2    4 am   BACKBONE|DICT|INTERRES
     7    4    5 1    
     8    4   70 1    
     9    5    6 1    
    10    5   65 1    
    11    5   71 1    
    12    6    7 1    
    13    6   72 1    
    14    6   73 1    
    15    7    8 1    
    16    8    9 1    
    17    8   74 1    
    18    8   75 1    
    19    9   10 ar   
    20    9   14 ar   
    21   10   11 ar   
    22   10   76 1    
    23   11   12 ar   
    24   11   48 1    
    25   12   13 ar   
    26   12   77 1    
    27   13   14 ar   
    28   13   15 1    
    29   14   78 1    
    30   15   16 1    
    31   15   79 1    
    32   15   80 1    
    33   16   17 1    
    34   17   18 1    
    35   17   81 1    
    36   17   82 1    
    37   18   19 1    
    38   18   22 1    
    39   18   83 1    
    40   19   20 am   BACKBONE|DICT|INTERRES
    41   19   21 2    
    42   20   84 1    
    43   20   85 1    
    44   22   23 am   BACKBONE|DICT|INTERRES
    45   22   86 1    
    46   23   24 2    
    47   23   25 1    
    48   25   26 1    
    49   25   27 1    
    50   25   87 1    
    51   26   88 1    
    52   26   89 1    
    53   26   90 1    
    54   27   28 am   BACKBONE|DICT|INTERRES
    55   27   91 1    
    56   28   29 2    
    57   28   30 1    
    58   30   31 1    
    59   30   32 1    
    60   30   92 1    
    61   31   93 1    
    62   31   94 1    
    63   31   95 1    
    64   32   33 am   BACKBONE|DICT|INTERRES
    65   32   96 1    
    66   33   34 2    
    67   33   35 1    
    68   35   36 1    
    69   35   37 1    
    70   35   97 1    
    71   36   98 1    
    72   36   99 1    
    73   36  100 1    
    74   37   38 am   BACKBONE|DICT|INTERRES
    75   37  101 1    
    76   38   39 2    
    77   38   40 1    
    78   40   41 1    
    79   40   42 1    
    80   40  102 1    
    81   41  103 1    
    82   41  104 1    
    83   41  105 1    
    84   42   43 am   BACKBONE|DICT|INTERRES
    85   42  106 1    
    86   43   44 2    
    87   43   45 1    
    88   45   46 1    
    89   45   49 1    
    90   45  107 1    
    91   46   47 1    
    92   46  108 1    
    93   46  109 1    
    94   47   48 1    
    95   48  110 1    
    96   48  111 1    
    97   49   50 am   BACKBONE|DICT|INTERRES
    98   49  112 1    
    99   50   51 2    
   100   50   52 1    
   101   52   53 1    
   102   52   54 1    
   103   52  113 1    
   104   53  114 1    
   105   53  115 1    
   106   53  116 1    
   107   54   55 am   BACKBONE|DICT|INTERRES
   108   54  117 1    
   109   55   56 2    
   110   55   57 1    
   111   57   58 1    
   112   57   59 1    
   113   57  118 1    
   114   58  119 1    
   115   58  120 1    
   116   58  121 1    
   117   59   60 am   BACKBONE|DICT|INTERRES
   118   59  122 1    
   119   60   61 2    
   120   60   62 1    
   121   62   63 1    
   122   62   64 1    
   123   62  123 1    
   124   63  124 1    
   125   63  125 1    
   126   63  126 1    
   127   64   65 am   BACKBONE|DICT|INTERRES
   128   64  127 1    
   129   65   66 2    
@<TRIPOS>SUBSTRUCTURE
     1 UNK         1 GROUP             0       ****    0 ROOT    
