@<TRIPOS>MOLECULE
3R135
127   129    1
SMALL
USER_CHARGES


@<TRIPOS>ATOM
      1 CA        -83.9283   26.3493  -76.3441 C.3       0 UNK        -0.1998 
      2 C         -82.8039   27.2638  -75.8830 C.2       0 UNK         0.4909 
      3 O         -82.0388   27.7607  -76.7104 O.2       0 UNK        -0.5240 
      4 N         -82.6911   27.4906  -74.5674 N.am      1 UNK        -0.4739 
      5 CA        -81.6115   28.2699  -73.9538 C.3       1 UNK         0.0864 
      6 C6        -81.9237   28.5983  -72.4740 C.3       11 UNK        -0.0881 
      7 S7        -80.9516   30.0116  -71.8456 S.3       11 UNK        -0.2682 
      8 C8        -80.2163   29.3338  -70.3227 C.3       11 UNK         0.0289 
      9 C9        -78.9476   28.5388  -70.5978 C.ar      11 UNK        -0.0687 
     10 C10       -79.0140   27.1706  -70.8692 C.ar      11 UNK        -0.0823 
     11 C11       -77.8560   26.4262  -71.1133 C.ar      11 UNK        -0.0830 
     12 C12       -76.6116   27.0702  -71.0669 C.ar      11 UNK        -0.1021 
     13 C13       -76.5295   28.4355  -70.7758 C.ar      11 UNK        -0.0753 
     14 C14       -77.7001   29.1657  -70.5517 C.ar      11 UNK        -0.0933 
     15 C15       -75.1777   29.1214  -70.6641 C.3       11 UNK         0.0166 
     16 S16       -74.7549   30.0285  -72.1800 S.3       11 UNK        -0.2615 
     17 C17       -73.3512   31.0133  -71.5587 C.3       11 UNK        -0.0865 
     18 CA        -72.6792   31.8656  -72.6637 C.3       10 UNK         0.0862 
     19 C         -71.6178   32.8155  -72.0425 C.2       10 UNK         0.5551 
     20 N         -72.0038   34.0365  -71.6990 N.am      10 UNK        -0.7319 
     21 O         -70.4667   32.4391  -71.8282 O.2       10 UNK        -0.5018 
     22 N         -72.1245   31.0145  -73.7248 N.am      10 UNK        -0.4509 
     23 C         -71.6186   31.4497  -74.8854 C.2       10 UNK         0.4899 
     24 O         -71.6110   32.6315  -75.2326 O.2       10 UNK        -0.4839 
     25 CA        -71.0124   30.3921  -75.8269 C.3       9 UNK         0.0222 
     26 CB        -69.4777   30.4114  -75.7303 C.3       9 UNK        -0.1966 
     27 N         -71.4923   29.0270  -75.5814 N.am      9 UNK        -0.4218 
     28 C         -72.7264   28.5915  -75.8685 C.2       9 UNK         0.5020 
     29 O         -73.6129   29.3043  -76.3449 O.2       9 UNK        -0.5274 
     30 CA        -73.0123   27.1128  -75.5452 C.3       8 UNK         0.0270 
     31 CB        -73.5109   26.9530  -74.0990 C.3       8 UNK        -0.1976 
     32 N         -73.9853   26.5107  -76.4596 N.am      8 UNK        -0.4313 
     33 C         -73.8108   26.3663  -77.7800 C.2       8 UNK         0.5041 
     34 O         -72.7812   26.6809  -78.3824 O.2       8 UNK        -0.5577 
     35 CA        -74.9890   25.7264  -78.5327 C.3       7 UNK         0.0284 
     36 CB        -74.8226   25.7408  -80.0676 C.3       7 UNK        -0.1958 
     37 N         -75.2610   24.3723  -78.0352 N.am      7 UNK        -0.4454 
     38 C         -74.4483   23.3057  -78.0850 C.2       7 UNK         0.5089 
     39 O         -73.3450   23.2952  -78.6335 O.2       7 UNK        -0.5125 
     40 CA        -74.9789   22.0279  -77.4067 C.3       6 UNK         0.0408 
     41 CB        -73.8963   20.9417  -77.2291 C.3       6 UNK        -0.1791 
     42 N         -75.6682   22.2927  -76.1380 N.am      6 UNK        -0.4762 
     43 C         -75.1528   22.8252  -75.0159 C.2       6 UNK         0.5007 
     44 O         -73.9815   23.1903  -74.9126 O.2       6 UNK        -0.5032 
     45 CA        -76.1130   22.9601  -73.8124 C.3       5 UNK         0.0783 
     46 C46       -75.6856   24.0631  -72.8078 C.3       11 UNK        -0.0857 
     47 S47       -76.5480   23.8924  -71.2089 S.3       11 UNK        -0.2512 
     48 C48       -78.0226   24.9435  -71.4435 C.3       11 UNK         0.0225 
     49 N         -77.4729   23.1939  -74.3002 N.am      5 UNK        -0.4615 
     50 C         -78.4781   22.3105  -74.3036 C.2       4 UNK         0.5053 
     51 O         -78.3855   21.1680  -73.8563 O.2       4 UNK        -0.5105 
     52 CA        -79.8081   22.7679  -74.9340 C.3       4 UNK         0.0263 
     53 CB        -80.8661   23.0152  -73.8463 C.3       4 UNK        -0.1981 
     54 N         -79.6735   23.9720  -75.7622 N.am      4 UNK        -0.4224 
     55 C         -79.0617   24.0040  -76.9575 C.2       3 UNK         0.4895 
     56 O         -78.5750   23.0129  -77.5013 O.2       3 UNK        -0.5091 
     57 CA        -78.9053   25.3755  -77.6373 C.3       3 UNK         0.0250 
     58 CB        -80.0913   25.6451  -78.5749 C.3       3 UNK        -0.1996 
     59 N         -78.7618   26.4823  -76.6868 N.am      3 UNK        -0.4254 
     60 C         -77.7649   26.6137  -75.7968 C.2       2 UNK         0.5004 
     61 O         -76.8004   25.8477  -75.7384 O.2       2 UNK        -0.5226 
     62 CA        -77.8693   27.7614  -74.7751 C.3       2 UNK         0.0269 
     63 CB        -76.9761   28.9347  -75.1992 C.3       2 UNK        -0.1926 
     64 N         -79.2286   28.2630  -74.5429 N.am      2 UNK        -0.4687 
     65 C         -80.2678   27.5316  -74.1183 C.2       1 UNK         0.5165 
     66 O         -80.2073   26.3198  -73.8940 O.2       1 UNK        -0.5079 
     67 H67       -84.5756   26.8752  -77.0453 H         1 UNK         0.0900 
     68 H68       -83.5167   25.4756  -76.8487 H         1 UNK         0.0900 
     69 H69       -84.5400   26.0035  -75.5111 H         1 UNK         0.0900 
     70 H70       -83.3258   27.0342  -73.9279 H         1 UNK         0.2959 
     71 H71       -81.5572   29.2117  -74.5053 H         1 UNK         0.1079 
     72 H72       -81.8001   27.7198  -71.8397 H         1 UNK         0.0837 
     73 H73       -82.9728   28.8821  -72.3752 H         1 UNK         0.0837 
     74 H74       -80.9477   28.7186  -69.7963 H         1 UNK         0.0685 
     75 H75       -79.9883   30.1637  -69.6520 H         1 UNK         0.0685 
     76 H76       -79.9762   26.6792  -70.9017 H         1 UNK         0.1434 
     77 H77       -75.7005   26.5187  -71.2480 H         1 UNK         0.1329 
     78 H78       -77.6373   30.2228  -70.3315 H         1 UNK         0.1335 
     79 H79       -74.3937   28.3927  -70.4518 H         1 UNK         0.0680 
     80 H80       -75.1941   29.8110  -69.8185 H         1 UNK         0.0680 
     81 H81       -73.7262   31.6575  -70.7606 H         1 UNK         0.1032 
     82 H82       -72.6232   30.3447  -71.0946 H         1 UNK         0.1032 
     83 H83       -73.4503   32.4851  -73.1270 H         1 UNK         0.0461 
     84 H84       -72.9481   34.3502  -71.8623 H         1 UNK         0.3453 
     85 H85       -71.3344   34.6626  -71.2790 H         1 UNK         0.3453 
     86 H86       -72.0915   30.0268  -73.5275 H         1 UNK         0.2984 
     87 H87       -71.2905   30.6676  -76.8465 H         1 UNK         0.0554 
     88 H88       -69.0859   31.4068  -75.9448 H         1 UNK         0.0847 
     89 H89       -69.0241   29.7271  -76.4477 H         1 UNK         0.0847 
     90 H90       -69.1312   30.1350  -74.7335 H         1 UNK         0.0847 
     91 H91       -70.8257   28.3767  -75.1896 H         1 UNK         0.3141 
     92 H92       -72.0805   26.5534  -75.6516 H         1 UNK         0.0743 
     93 H93       -74.4902   27.4085  -73.9504 H         1 UNK         0.0784 
     94 H94       -73.5854   25.9003  -73.8285 H         1 UNK         0.0784 
     95 H95       -72.8260   27.4175  -73.3886 H         1 UNK         0.0784 
     96 H96       -74.8760   26.2258  -76.0632 H         1 UNK         0.3213 
     97 H97       -75.8637   26.3347  -78.3006 H         1 UNK         0.0855 
     98 H98       -73.9414   25.1864  -80.3911 H         1 UNK         0.0814 
     99 H99       -74.7119   26.7621  -80.4340 H         1 UNK         0.0814 
    100 H100      -75.6916   25.3100  -80.5645 H         1 UNK         0.0814 
    101 H101      -76.1117   24.2689  -77.4990 H         1 UNK         0.3105 
    102 H102      -75.7365   21.6250  -78.0807 H         1 UNK         0.0547 
    103 H103      -74.3056   20.0441  -76.7660 H         1 UNK         0.0837 
    104 H104      -73.0682   21.2911  -76.6116 H         1 UNK         0.0837 
    105 H105      -73.4787   20.6455  -78.1921 H         1 UNK         0.0837 
    106 H106      -76.6522   22.0577  -76.1283 H         1 UNK         0.3020 
    107 H107      -76.0615   21.9984  -73.2965 H         1 UNK         0.1245 
    108 H108      -75.8534   25.0581  -73.2230 H         1 UNK         0.0781 
    109 H109      -74.6193   23.9990  -72.5849 H         1 UNK         0.0781 
    110 H110      -78.8121   24.5288  -70.8149 H         1 UNK         0.0836 
    111 H111      -78.3816   24.8610  -72.4677 H         1 UNK         0.0836 
    112 H112      -77.6191   24.0971  -74.7333 H         1 UNK         0.3022 
    113 H113      -80.1613   21.9555  -75.5728 H         1 UNK         0.0747 
    114 H114      -81.8200   23.3161  -74.2798 H         1 UNK         0.0793 
    115 H115      -81.0458   22.1098  -73.2650 H         1 UNK         0.0793 
    116 H116      -80.5561   23.7920  -73.1471 H         1 UNK         0.0793 
    117 H117      -79.9965   24.8407  -75.3473 H         1 UNK         0.3047 
    118 H118      -78.0020   25.3408  -78.2468 H         1 UNK         0.0822 
    119 H119      -79.9903   26.6050  -79.0816 H         1 UNK         0.0807 
    120 H120      -81.0397   25.6468  -78.0375 H         1 UNK         0.0807 
    121 H121      -80.1586   24.8771  -79.3468 H         1 UNK         0.0807 
    122 H122      -79.5190   27.1526  -76.6563 H         1 UNK         0.2946 
    123 H123      -77.4971   27.3725  -73.8257 H         1 UNK         0.1144 
    124 H124      -76.9328   29.7004  -74.4244 H         1 UNK         0.0793 
    125 H125      -77.3285   29.4024  -76.1191 H         1 UNK         0.0793 
    126 H126      -75.9540   28.6030  -75.3765 H         1 UNK         0.0793 
    127 H127      -79.3683   29.2513  -74.6973 H         1 UNK         0.2896 
@<TRIPOS>BOND
     1    1    2 1    
     2    1   67 1    
     3    1   68 1    
     4    1   69 1    
     5    2    3 2    
     6    2    4 am   BACKBONE|DICT|INTERRES
     7    4    5 1    
     8    4   70 1    
     9    5    6 1    
    10    5   65 1    
    11    5   71 1    
    12    6    7 1    
    13    6   72 1    
    14    6   73 1    
    15    7    8 1    
    16    8    9 1    
    17    8   74 1    
    18    8   75 1    
    19    9   10 ar   
    20    9   14 ar   
    21   10   11 ar   
    22   10   76 1    
    23   11   12 ar   
    24   11   48 1    
    25   12   13 ar   
    26   12   77 1    
    27   13   14 ar   
    28   13   15 1    
    29   14   78 1    
    30   15   16 1    
    31   15   79 1    
    32   15   80 1    
    33   16   17 1    
    34   17   18 1    
    35   17   81 1    
    36   17   82 1    
    37   18   19 1    
    38   18   22 1    
    39   18   83 1    
    40   19   20 am   BACKBONE|DICT|INTERRES
    41   19   21 2    
    42   20   84 1    
    43   20   85 1    
    44   22   23 am   BACKBONE|DICT|INTERRES
    45   22   86 1    
    46   23   24 2    
    47   23   25 1    
    48   25   26 1    
    49   25   27 1    
    50   25   87 1    
    51   26   88 1    
    52   26   89 1    
    53   26   90 1    
    54   27   28 am   BACKBONE|DICT|INTERRES
    55   27   91 1    
    56   28   29 2    
    57   28   30 1    
    58   30   31 1    
    59   30   32 1    
    60   30   92 1    
    61   31   93 1    
    62   31   94 1    
    63   31   95 1    
    64   32   33 am   BACKBONE|DICT|INTERRES
    65   32   96 1    
    66   33   34 2    
    67   33   35 1    
    68   35   36 1    
    69   35   37 1    
    70   35   97 1    
    71   36   98 1    
    72   36   99 1    
    73   36  100 1    
    74   37   38 am   BACKBONE|DICT|INTERRES
    75   37  101 1    
    76   38   39 2    
    77   38   40 1    
    78   40   41 1    
    79   40   42 1    
    80   40  102 1    
    81   41  103 1    
    82   41  104 1    
    83   41  105 1    
    84   42   43 am   BACKBONE|DICT|INTERRES
    85   42  106 1    
    86   43   44 2    
    87   43   45 1    
    88   45   46 1    
    89   45   49 1    
    90   45  107 1    
    91   46   47 1    
    92   46  108 1    
    93   46  109 1    
    94   47   48 1    
    95   48  110 1    
    96   48  111 1    
    97   49   50 am   BACKBONE|DICT|INTERRES
    98   49  112 1    
    99   50   51 2    
   100   50   52 1    
   101   52   53 1    
   102   52   54 1    
   103   52  113 1    
   104   53  114 1    
   105   53  115 1    
   106   53  116 1    
   107   54   55 am   BACKBONE|DICT|INTERRES
   108   54  117 1    
   109   55   56 2    
   110   55   57 1    
   111   57   58 1    
   112   57   59 1    
   113   57  118 1    
   114   58  119 1    
   115   58  120 1    
   116   58  121 1    
   117   59   60 am   BACKBONE|DICT|INTERRES
   118   59  122 1    
   119   60   61 2    
   120   60   62 1    
   121   62   63 1    
   122   62   64 1    
   123   62  123 1    
   124   63  124 1    
   125   63  125 1    
   126   63  126 1    
   127   64   65 am   BACKBONE|DICT|INTERRES
   128   64  127 1    
   129   65   66 2    
@<TRIPOS>SUBSTRUCTURE
     1 UNK         1 GROUP             0       ****    0 ROOT    
