@<TRIPOS>MOLECULE
3R135
127   129    1
SMALL
USER_CHARGES


@<TRIPOS>ATOM
      1 CA        -81.2551   31.8256  -75.0332 C.3       0 UNK        -0.1998 
      2 C         -81.0918   30.3641  -74.6433 C.2       0 UNK         0.4909 
      3 O         -81.9112   29.5363  -75.0413 O.2       0 UNK        -0.5240 
      4 N         -80.0398   30.0566  -73.8722 N.am      1 UNK        -0.4739 
      5 CA        -79.6359   28.7266  -73.3967 C.3       1 UNK         0.0864 
      6 C6        -80.6494   28.0849  -72.4086 C.3       11 UNK        -0.0881 
      7 S7        -80.7799   29.0317  -70.8512 S.3       11 UNK        -0.2682 
      8 C8        -79.7167   28.0688  -69.7239 C.3       11 UNK         0.0289 
      9 C9        -78.2443   28.1938  -70.0900 C.ar      11 UNK        -0.0687 
     10 C10       -77.6602   27.2743  -70.9648 C.ar      11 UNK        -0.0823 
     11 C11       -76.3299   27.4185  -71.3588 C.ar      11 UNK        -0.0830 
     12 C12       -75.5551   28.4410  -70.8091 C.ar      11 UNK        -0.1021 
     13 C13       -76.1232   29.3707  -69.9314 C.ar      11 UNK        -0.0753 
     14 C14       -77.4710   29.2409  -69.5770 C.ar      11 UNK        -0.0933 
     15 C15       -75.2923   30.5214  -69.3711 C.3       11 UNK         0.0166 
     16 S16       -74.2799   31.3718  -70.6320 S.3       11 UNK        -0.2615 
     17 C17       -75.5507   32.0249  -71.7718 C.3       11 UNK        -0.0865 
     18 CA        -75.7362   31.1680  -73.0558 C.3       10 UNK         0.0862 
     19 C         -76.8628   31.7526  -73.9549 C.2       10 UNK         0.5551 
     20 N         -76.6291   32.0327  -75.2304 N.am      10 UNK        -0.7319 
     21 O         -77.9818   31.9379  -73.4856 O.2       10 UNK        -0.5018 
     22 N         -74.4586   30.9184  -73.7456 N.am      10 UNK        -0.4509 
     23 C         -74.2056   29.8951  -74.5715 C.2       10 UNK         0.4899 
     24 O         -75.0371   29.0343  -74.8656 O.2       10 UNK        -0.4839 
     25 CA        -72.8052   29.8801  -75.2203 C.3       9 UNK         0.0222 
     26 CB        -71.6918   30.4021  -74.2817 C.3       9 UNK        -0.1966 
     27 N         -72.4356   28.5784  -75.7903 N.am      9 UNK        -0.4218 
     28 C         -72.1912   27.4305  -75.1434 C.2       9 UNK         0.5020 
     29 O         -72.2848   27.2856  -73.9232 O.2       9 UNK        -0.5274 
     30 CA        -71.7496   26.2480  -76.0313 C.3       8 UNK         0.0270 
     31 CB        -71.1465   25.0869  -75.2208 C.3       8 UNK        -0.1976 
     32 N         -72.8510   25.7492  -76.8603 N.am      8 UNK        -0.4313 
     33 C         -73.3097   26.3631  -77.9606 C.2       8 UNK         0.5041 
     34 O         -72.8054   27.3965  -78.4065 O.2       8 UNK        -0.5577 
     35 CA        -74.5556   25.7855  -78.6566 C.3       7 UNK         0.0284 
     36 CB        -74.4449   25.8084  -80.1962 C.3       7 UNK        -0.1958 
     37 N         -74.9897   24.4772  -78.1473 N.am      7 UNK        -0.4454 
     38 C         -74.4566   23.2701  -78.3888 C.2       7 UNK         0.5089 
     39 O         -73.4648   23.0809  -79.0939 O.2       7 UNK        -0.5125 
     40 CA        -75.1624   22.0771  -77.7066 C.3       6 UNK         0.0408 
     41 CB        -74.3606   20.7623  -77.8085 C.3       6 UNK        -0.1791 
     42 N         -75.5373   22.3547  -76.3129 N.am      6 UNK        -0.4762 
     43 C         -74.7052   22.6993  -75.3154 C.2       6 UNK         0.5007 
     44 O         -73.4848   22.7694  -75.4597 O.2       6 UNK        -0.5032 
     45 CA        -75.3232   23.0865  -73.9541 C.3       5 UNK         0.0783 
     46 C46       -74.4986   24.2248  -73.2958 C.3       11 UNK        -0.0857 
     47 S47       -75.2268   24.9128  -71.7742 S.3       11 UNK        -0.2512 
     48 C48       -75.7506   26.5196  -72.4340 C.3       11 UNK         0.0225 
     49 N         -76.7418   23.4266  -74.1183 N.am      5 UNK        -0.4615 
     50 C         -77.7607   22.7445  -73.5761 C.2       4 UNK         0.5053 
     51 O         -77.6160   21.7864  -72.8165 O.2       4 UNK        -0.5105 
     52 CA        -79.1911   23.1757  -73.9603 C.3       4 UNK         0.0263 
     53 CB        -79.7754   24.0981  -72.8813 C.3       4 UNK        -0.1981 
     54 N         -79.2843   23.8418  -75.2634 N.am      4 UNK        -0.4224 
     55 C         -78.9418   23.2819  -76.4339 C.2       3 UNK         0.4895 
     56 O         -78.5776   22.1117  -76.5494 O.2       3 UNK        -0.5091 
     57 CA        -78.9252   24.1838  -77.6804 C.3       3 UNK         0.0250 
     58 CB        -80.2147   23.9942  -78.4941 C.3       3 UNK        -0.1996 
     59 N         -78.7349   25.6118  -77.4072 N.am      3 UNK        -0.4254 
     60 C         -77.7297   26.1698  -76.7167 C.2       2 UNK         0.5004 
     61 O         -76.8226   25.5240  -76.1860 O.2       2 UNK        -0.5226 
     62 CA        -77.7391   27.7052  -76.6009 C.3       2 UNK         0.0269 
     63 CB        -78.5232   28.4022  -77.7338 C.3       2 UNK        -0.1926 
     64 N         -78.2120   28.2114  -75.3072 N.am      2 UNK        -0.4687 
     65 C         -79.2746   27.8137  -74.5872 C.2       1 UNK         0.5165 
     66 O         -79.9640   26.8239  -74.8454 O.2       1 UNK        -0.5079 
     67 H67       -81.1901   31.9345  -76.1154 H         1 UNK         0.0900 
     68 H68       -82.2286   32.1936  -74.7104 H         1 UNK         0.0900 
     69 H69       -80.4891   32.4563  -74.5821 H         1 UNK         0.0900 
     70 H70       -79.3991   30.8066  -73.6171 H         1 UNK         0.2959 
     71 H71       -78.7036   28.8875  -72.8557 H         1 UNK         0.1079 
     72 H72       -80.3739   27.0573  -72.1724 H         1 UNK         0.0837 
     73 H73       -81.6406   28.0210  -72.8599 H         1 UNK         0.0837 
     74 H74       -80.0265   27.0225  -69.7284 H         1 UNK         0.0685 
     75 H75       -79.8729   28.4258  -68.7049 H         1 UNK         0.0685 
     76 H76       -78.2505   26.4677  -71.3714 H         1 UNK         0.1434 
     77 H77       -74.5203   28.5453  -71.1068 H         1 UNK         0.1329 
     78 H78       -77.9241   29.9586  -68.9067 H         1 UNK         0.1335 
     79 H79       -75.9310   31.2586  -68.8821 H         1 UNK         0.0680 
     80 H80       -74.6297   30.1271  -68.5997 H         1 UNK         0.0680 
     81 H81       -75.2668   33.0444  -72.0390 H         1 UNK         0.1032 
     82 H82       -76.4953   32.1120  -71.2310 H         1 UNK         0.1032 
     83 H83       -76.1207   30.1976  -72.7438 H         1 UNK         0.0461 
     84 H84       -77.3685   32.4160  -75.7970 H         1 UNK         0.3453 
     85 H85       -75.7156   31.8838  -75.6264 H         1 UNK         0.3453 
     86 H86       -73.7249   31.5860  -73.5610 H         1 UNK         0.2984 
     87 H87       -72.8628   30.5609  -76.0705 H         1 UNK         0.0554 
     88 H88       -70.7077   30.2960  -74.7383 H         1 UNK         0.0847 
     89 H89       -71.6765   29.8634  -73.3331 H         1 UNK         0.0847 
     90 H90       -71.8183   31.4611  -74.0556 H         1 UNK         0.0847 
     91 H91       -72.4253   28.5262  -76.8058 H         1 UNK         0.3141 
     92 H92       -70.9608   26.6160  -76.6913 H         1 UNK         0.0743 
     93 H93       -70.2739   25.4196  -74.6575 H         1 UNK         0.0784 
     94 H94       -70.8235   24.2730  -75.8702 H         1 UNK         0.0784 
     95 H95       -71.8564   24.6793  -74.5032 H         1 UNK         0.0784 
     96 H96       -73.3049   24.9003  -76.5504 H         1 UNK         0.3213 
     97 H97       -75.3588   26.4751  -78.3990 H         1 UNK         0.0855 
     98 H98       -73.5893   25.2350  -80.5532 H         1 UNK         0.0814 
     99 H99       -74.3194   26.8283  -80.5620 H         1 UNK         0.0814 
    100 H100      -75.3421   25.4063  -80.6665 H         1 UNK         0.0814 
    101 H101      -75.7535   24.5286  -77.4787 H         1 UNK         0.3105 
    102 H102      -76.0982   21.9308  -78.2480 H         1 UNK         0.0547 
    103 H103      -74.8936   19.9352  -77.3402 H         1 UNK         0.0837 
    104 H104      -73.3826   20.8439  -77.3333 H         1 UNK         0.0837 
    105 H105      -74.1916   20.4883  -78.8506 H         1 UNK         0.0837 
    106 H106      -76.5306   22.3007  -76.1123 H         1 UNK         0.3020 
    107 H107      -75.2228   22.2015  -73.3221 H         1 UNK         0.1245 
    108 H108      -74.3283   25.0337  -74.0097 H         1 UNK         0.0781 
    109 H109      -73.5077   23.8545  -73.0278 H         1 UNK         0.0781 
    110 H110      -76.4864   26.3658  -73.2254 H         1 UNK         0.0836 
    111 H111      -74.8987   27.0127  -72.9062 H         1 UNK         0.0836 
    112 H112      -76.9361   24.2006  -74.7477 H         1 UNK         0.3022 
    113 H113      -79.8022   22.2721  -74.0080 H         1 UNK         0.0747 
    114 H114      -80.8143   24.3521  -73.0925 H         1 UNK         0.0793 
    115 H115      -79.7478   23.6239  -71.8992 H         1 UNK         0.0793 
    116 H116      -79.2099   25.0259  -72.8148 H         1 UNK         0.0793 
    117 H117      -79.5576   24.8202  -75.2559 H         1 UNK         0.3047 
    118 H118      -78.0841   23.8608  -78.2969 H         1 UNK         0.0822 
    119 H119      -80.1739   24.5386  -79.4377 H         1 UNK         0.0807 
    120 H120      -81.0922   24.3375  -77.9444 H         1 UNK         0.0807 
    121 H121      -80.3732   22.9423  -78.7371 H         1 UNK         0.0807 
    122 H122      -79.4468   26.2301  -77.7687 H         1 UNK         0.2946 
    123 H123      -76.6953   28.0108  -76.6895 H         1 UNK         0.1144 
    124 H124      -78.3519   29.4788  -77.7166 H         1 UNK         0.0793 
    125 H125      -79.5992   28.2445  -77.6487 H         1 UNK         0.0793 
    126 H126      -78.2063   28.0474  -78.7159 H         1 UNK         0.0793 
    127 H127      -77.6881   29.0046  -74.9643 H         1 UNK         0.2896 
@<TRIPOS>BOND
     1    1    2 1    
     2    1   67 1    
     3    1   68 1    
     4    1   69 1    
     5    2    3 2    
     6    2    4 am   BACKBONE|DICT|INTERRES
     7    4    5 1    
     8    4   70 1    
     9    5    6 1    
    10    5   65 1    
    11    5   71 1    
    12    6    7 1    
    13    6   72 1    
    14    6   73 1    
    15    7    8 1    
    16    8    9 1    
    17    8   74 1    
    18    8   75 1    
    19    9   10 ar   
    20    9   14 ar   
    21   10   11 ar   
    22   10   76 1    
    23   11   12 ar   
    24   11   48 1    
    25   12   13 ar   
    26   12   77 1    
    27   13   14 ar   
    28   13   15 1    
    29   14   78 1    
    30   15   16 1    
    31   15   79 1    
    32   15   80 1    
    33   16   17 1    
    34   17   18 1    
    35   17   81 1    
    36   17   82 1    
    37   18   19 1    
    38   18   22 1    
    39   18   83 1    
    40   19   20 am   BACKBONE|DICT|INTERRES
    41   19   21 2    
    42   20   84 1    
    43   20   85 1    
    44   22   23 am   BACKBONE|DICT|INTERRES
    45   22   86 1    
    46   23   24 2    
    47   23   25 1    
    48   25   26 1    
    49   25   27 1    
    50   25   87 1    
    51   26   88 1    
    52   26   89 1    
    53   26   90 1    
    54   27   28 am   BACKBONE|DICT|INTERRES
    55   27   91 1    
    56   28   29 2    
    57   28   30 1    
    58   30   31 1    
    59   30   32 1    
    60   30   92 1    
    61   31   93 1    
    62   31   94 1    
    63   31   95 1    
    64   32   33 am   BACKBONE|DICT|INTERRES
    65   32   96 1    
    66   33   34 2    
    67   33   35 1    
    68   35   36 1    
    69   35   37 1    
    70   35   97 1    
    71   36   98 1    
    72   36   99 1    
    73   36  100 1    
    74   37   38 am   BACKBONE|DICT|INTERRES
    75   37  101 1    
    76   38   39 2    
    77   38   40 1    
    78   40   41 1    
    79   40   42 1    
    80   40  102 1    
    81   41  103 1    
    82   41  104 1    
    83   41  105 1    
    84   42   43 am   BACKBONE|DICT|INTERRES
    85   42  106 1    
    86   43   44 2    
    87   43   45 1    
    88   45   46 1    
    89   45   49 1    
    90   45  107 1    
    91   46   47 1    
    92   46  108 1    
    93   46  109 1    
    94   47   48 1    
    95   48  110 1    
    96   48  111 1    
    97   49   50 am   BACKBONE|DICT|INTERRES
    98   49  112 1    
    99   50   51 2    
   100   50   52 1    
   101   52   53 1    
   102   52   54 1    
   103   52  113 1    
   104   53  114 1    
   105   53  115 1    
   106   53  116 1    
   107   54   55 am   BACKBONE|DICT|INTERRES
   108   54  117 1    
   109   55   56 2    
   110   55   57 1    
   111   57   58 1    
   112   57   59 1    
   113   57  118 1    
   114   58  119 1    
   115   58  120 1    
   116   58  121 1    
   117   59   60 am   BACKBONE|DICT|INTERRES
   118   59  122 1    
   119   60   61 2    
   120   60   62 1    
   121   62   63 1    
   122   62   64 1    
   123   62  123 1    
   124   63  124 1    
   125   63  125 1    
   126   63  126 1    
   127   64   65 am   BACKBONE|DICT|INTERRES
   128   64  127 1    
   129   65   66 2    
@<TRIPOS>SUBSTRUCTURE
     1 UNK         1 GROUP             0       ****    0 ROOT    
