@<TRIPOS>MOLECULE
3R135
127   129    1
SMALL
USER_CHARGES


@<TRIPOS>ATOM
      1 CA        -79.9513   26.8555  -70.7948 C.3       0 UNK        -0.1998 
      2 C         -80.9850   27.7413  -71.4706 C.2       0 UNK         0.4909 
      3 O         -82.0330   28.0166  -70.8858 O.2       0 UNK        -0.5240 
      4 N         -80.7042   28.1796  -72.7050 N.am      1 UNK        -0.4739 
      5 CA        -81.6183   28.9711  -73.5403 C.3       1 UNK         0.0864 
      6 C6        -80.8850   29.6578  -74.7216 C.3       11 UNK        -0.0881 
      7 S7        -79.9733   28.5023  -75.8102 S.3       11 UNK        -0.2682 
      8 C8        -78.2491   29.0404  -75.5847 C.3       11 UNK         0.0289 
      9 C9        -77.7293   28.7270  -74.1899 C.ar      11 UNK        -0.0687 
     10 C10       -77.3625   27.4211  -73.8581 C.ar      11 UNK        -0.0823 
     11 C11       -76.8655   27.1233  -72.5856 C.ar      11 UNK        -0.0830 
     12 C12       -76.7556   28.1417  -71.6339 C.ar      11 UNK        -0.1021 
     13 C13       -77.1492   29.4467  -71.9454 C.ar      11 UNK        -0.0753 
     14 C14       -77.6192   29.7363  -73.2295 C.ar      11 UNK        -0.0933 
     15 C15       -77.1267   30.5366  -70.8841 C.3       11 UNK         0.0166 
     16 S16       -75.8062   31.7548  -71.1658 S.3       11 UNK        -0.2615 
     17 C17       -74.3268   30.8477  -70.6009 C.3       11 UNK        -0.0865 
     18 CA        -73.2402   30.7497  -71.7028 C.3       10 UNK         0.0862 
     19 C         -71.8814   30.2562  -71.1180 C.2       10 UNK         0.5551 
     20 N         -71.2474   29.2166  -71.6472 N.am      10 UNK        -0.7319 
     21 O         -71.3821   30.8410  -70.1596 O.2       10 UNK        -0.5018 
     22 N         -73.7181   29.9870  -72.8669 N.am      10 UNK        -0.4509 
     23 C         -73.2406   30.1206  -74.1076 C.2       10 UNK         0.4899 
     24 O         -72.4232   30.9777  -74.4509 O.2       10 UNK        -0.4839 
     25 CA        -73.7547   29.1053  -75.1415 C.3       9 UNK         0.0222 
     26 CB        -74.7033   29.7849  -76.1407 C.3       9 UNK        -0.1966 
     27 N         -72.6619   28.4568  -75.8747 N.am      9 UNK        -0.4218 
     28 C         -71.6208   27.8078  -75.3296 C.2       9 UNK         0.5020 
     29 O         -71.4876   27.6412  -74.1153 O.2       9 UNK        -0.5274 
     30 CA        -70.5641   27.2304  -76.2916 C.3       8 UNK         0.0270 
     31 CB        -69.7879   26.0549  -75.6675 C.3       8 UNK        -0.1976 
     32 N         -71.1557   26.7897  -77.5578 N.am      8 UNK        -0.4313 
     33 C         -71.2277   27.5311  -78.6723 C.2       8 UNK         0.5041 
     34 O         -70.8064   28.6856  -78.7452 O.2       8 UNK        -0.5577 
     35 CA        -71.8890   26.9031  -79.9140 C.3       7 UNK         0.0284 
     36 CB        -70.8171   26.4268  -80.9081 C.3       7 UNK        -0.1958 
     37 N         -72.7879   25.7876  -79.6086 N.am      7 UNK        -0.4454 
     38 C         -73.9612   25.9007  -78.9723 C.2       7 UNK         0.5089 
     39 O         -74.4294   26.9749  -78.5926 O.2       7 UNK        -0.5125 
     40 CA        -74.7355   24.6004  -78.6784 C.3       6 UNK         0.0408 
     41 CB        -74.1785   23.3474  -79.3923 C.3       6 UNK        -0.1791 
     42 N         -74.8414   24.3610  -77.2365 N.am      6 UNK        -0.4762 
     43 C         -73.8438   24.2628  -76.3465 C.2       6 UNK         0.5007 
     44 O         -72.6522   24.3302  -76.6533 O.2       6 UNK        -0.5032 
     45 CA        -74.2285   24.0634  -74.8631 C.3       5 UNK         0.0783 
     46 C46       -74.4610   25.4370  -74.1864 C.3       11 UNK        -0.0857 
     47 S47       -74.7240   25.3478  -72.3830 S.3       11 UNK        -0.2512 
     48 C48       -76.5059   25.6899  -72.2208 C.3       11 UNK         0.0225 
     49 N         -75.3152   23.0925  -74.6433 N.am      5 UNK        -0.4615 
     50 C         -76.6132   23.1989  -74.9591 C.2       4 UNK         0.5053 
     51 O         -77.0890   24.1508  -75.5820 O.2       4 UNK        -0.5105 
     52 CA        -77.5043   22.0162  -74.5311 C.3       4 UNK         0.0263 
     53 CB        -77.3621   21.6880  -73.0270 C.3       4 UNK        -0.1981 
     54 N         -78.9168   22.1849  -74.9005 N.am      4 UNK        -0.4224 
     55 C         -79.8035   23.0630  -74.4078 C.2       3 UNK         0.4895 
     56 O         -79.5705   23.8813  -73.5123 O.2       3 UNK        -0.5091 
     57 CA        -81.2135   22.9792  -75.0072 C.3       3 UNK         0.0250 
     58 CB        -81.9372   21.6953  -74.5530 C.3       3 UNK        -0.1996 
     59 N         -81.9795   24.1506  -74.5923 N.am      3 UNK        -0.4254 
     60 C         -83.0516   24.6437  -75.2249 C.2       2 UNK         0.5004 
     61 O         -83.5298   24.1521  -76.2478 O.2       2 UNK        -0.5226 
     62 CA        -83.6946   25.9012  -74.6281 C.3       2 UNK         0.0269 
     63 CB        -84.6694   25.5372  -73.4927 C.3       2 UNK        -0.1926 
     64 N         -82.6769   26.8368  -74.1502 N.am      2 UNK        -0.4687 
     65 C         -82.8393   28.1602  -74.0300 C.2       1 UNK         0.5165 
     66 O         -83.8930   28.7458  -74.2860 O.2       1 UNK        -0.5079 
     67 H67       -79.2550   27.4613  -70.2159 H         1 UNK         0.0900 
     68 H68       -79.3890   26.2770  -71.5270 H         1 UNK         0.0900 
     69 H69       -80.4360   26.1516  -70.1188 H         1 UNK         0.0900 
     70 H70       -79.8126   27.9573  -73.1288 H         1 UNK         0.2959 
     71 H71       -82.0231   29.7651  -72.9084 H         1 UNK         0.1079 
     72 H72       -81.5929   30.2181  -75.3357 H         1 UNK         0.0837 
     73 H73       -80.1982   30.4086  -74.3305 H         1 UNK         0.0837 
     74 H74       -77.6266   28.5322  -76.3226 H         1 UNK         0.0685 
     75 H75       -78.1685   30.1068  -75.8009 H         1 UNK         0.0685 
     76 H76       -77.4744   26.6343  -74.5925 H         1 UNK         0.1434 
     77 H77       -76.3953   27.9087  -70.6410 H         1 UNK         0.1329 
     78 H78       -77.9151   30.7477  -73.4719 H         1 UNK         0.1335 
     79 H79       -78.0857   31.0567  -70.8939 H         1 UNK         0.0680 
     80 H80       -77.0267   30.1106  -69.8845 H         1 UNK         0.0680 
     81 H81       -74.6000   29.8524  -70.2470 H         1 UNK         0.1032 
     82 H82       -73.9446   31.3803  -69.7278 H         1 UNK         0.1032 
     83 H83       -73.0431   31.7689  -72.0412 H         1 UNK         0.0461 
     84 H84       -71.5996   28.7357  -72.4688 H         1 UNK         0.3453 
     85 H85       -70.3707   28.9264  -71.2455 H         1 UNK         0.3453 
     86 H86       -74.3990   29.2662  -72.6750 H         1 UNK         0.2984 
     87 H87       -74.3138   28.3267  -74.6204 H         1 UNK         0.0554 
     88 H88       -75.1525   29.0587  -76.8185 H         1 UNK         0.0847 
     89 H89       -74.1863   30.5331  -76.7428 H         1 UNK         0.0847 
     90 H90       -75.5167   30.2927  -75.6212 H         1 UNK         0.0847 
     91 H91       -72.6791   28.5495  -76.8803 H         1 UNK         0.3141 
     92 H92       -69.8455   28.0304  -76.4813 H         1 UNK         0.0743 
     93 H93       -69.2485   26.3713  -74.7737 H         1 UNK         0.0784 
     94 H94       -70.4529   25.2417  -75.3750 H         1 UNK         0.0784 
     95 H95       -69.0502   25.6526  -76.3619 H         1 UNK         0.0784 
     96 H96       -71.5897   25.8713  -77.5467 H         1 UNK         0.3213 
     97 H97       -72.4783   27.6861  -80.3966 H         1 UNK         0.0855 
     98 H98       -70.1486   27.2444  -81.1821 H         1 UNK         0.0814 
     99 H99       -71.2656   26.0563  -81.8301 H         1 UNK         0.0814 
    100 H100      -70.2012   25.6304  -80.4882 H         1 UNK         0.0814 
    101 H101      -72.4713   24.8638  -79.8657 H         1 UNK         0.3105 
    102 H102      -75.7517   24.7622  -79.0404 H         1 UNK         0.0547 
    103 H103      -74.1439   23.4903  -80.4733 H         1 UNK         0.0837 
    104 H104      -73.1748   23.0860  -79.0554 H         1 UNK         0.0837 
    105 H105      -74.8168   22.4829  -79.2097 H         1 UNK         0.0837 
    106 H106      -75.7855   24.3441  -76.8545 H         1 UNK         0.3020 
    107 H107      -73.3496   23.6200  -74.3912 H         1 UNK         0.1245 
    108 H108      -75.2788   25.9676  -74.6691 H         1 UNK         0.0781 
    109 H109      -73.5822   26.0617  -74.3285 H         1 UNK         0.0781 
    110 H110      -76.8038   25.4928  -71.1900 H         1 UNK         0.0836 
    111 H111      -77.0772   24.9909  -72.8303 H         1 UNK         0.0836 
    112 H112      -75.0239   22.2496  -74.1692 H         1 UNK         0.3022 
    113 H113      -77.1548   21.1500  -75.0951 H         1 UNK         0.0747 
    114 H114      -78.0432   20.8901  -72.7309 H         1 UNK         0.0793 
    115 H115      -76.3547   21.3500  -72.7832 H         1 UNK         0.0793 
    116 H116      -77.5720   22.5538  -72.3984 H         1 UNK         0.0793 
    117 H117      -79.2289   21.5850  -75.6514 H         1 UNK         0.3047 
    118 H118      -81.1179   22.9835  -76.0954 H         1 UNK         0.0822 
    119 H119      -82.9334   21.6230  -74.9897 H         1 UNK         0.0807 
    120 H120      -82.0456   21.6596  -73.4682 H         1 UNK         0.0807 
    121 H121      -81.3914   20.8012  -74.8560 H         1 UNK         0.0807 
    122 H122      -81.6172   24.5962  -73.7597 H         1 UNK         0.2946 
    123 H123      -84.2594   26.3803  -75.4316 H         1 UNK         0.1144 
    124 H124      -85.2088   26.4144  -73.1351 H         1 UNK         0.0793 
    125 H125      -84.1500   25.0948  -72.6418 H         1 UNK         0.0793 
    126 H126      -85.4146   24.8171  -73.8333 H         1 UNK         0.0793 
    127 H127      -81.7537   26.4652  -73.9810 H         1 UNK         0.2896 
@<TRIPOS>BOND
     1    1    2 1    
     2    1   67 1    
     3    1   68 1    
     4    1   69 1    
     5    2    3 2    
     6    2    4 am   BACKBONE|DICT|INTERRES
     7    4    5 1    
     8    4   70 1    
     9    5    6 1    
    10    5   65 1    
    11    5   71 1    
    12    6    7 1    
    13    6   72 1    
    14    6   73 1    
    15    7    8 1    
    16    8    9 1    
    17    8   74 1    
    18    8   75 1    
    19    9   10 ar   
    20    9   14 ar   
    21   10   11 ar   
    22   10   76 1    
    23   11   12 ar   
    24   11   48 1    
    25   12   13 ar   
    26   12   77 1    
    27   13   14 ar   
    28   13   15 1    
    29   14   78 1    
    30   15   16 1    
    31   15   79 1    
    32   15   80 1    
    33   16   17 1    
    34   17   18 1    
    35   17   81 1    
    36   17   82 1    
    37   18   19 1    
    38   18   22 1    
    39   18   83 1    
    40   19   20 am   BACKBONE|DICT|INTERRES
    41   19   21 2    
    42   20   84 1    
    43   20   85 1    
    44   22   23 am   BACKBONE|DICT|INTERRES
    45   22   86 1    
    46   23   24 2    
    47   23   25 1    
    48   25   26 1    
    49   25   27 1    
    50   25   87 1    
    51   26   88 1    
    52   26   89 1    
    53   26   90 1    
    54   27   28 am   BACKBONE|DICT|INTERRES
    55   27   91 1    
    56   28   29 2    
    57   28   30 1    
    58   30   31 1    
    59   30   32 1    
    60   30   92 1    
    61   31   93 1    
    62   31   94 1    
    63   31   95 1    
    64   32   33 am   BACKBONE|DICT|INTERRES
    65   32   96 1    
    66   33   34 2    
    67   33   35 1    
    68   35   36 1    
    69   35   37 1    
    70   35   97 1    
    71   36   98 1    
    72   36   99 1    
    73   36  100 1    
    74   37   38 am   BACKBONE|DICT|INTERRES
    75   37  101 1    
    76   38   39 2    
    77   38   40 1    
    78   40   41 1    
    79   40   42 1    
    80   40  102 1    
    81   41  103 1    
    82   41  104 1    
    83   41  105 1    
    84   42   43 am   BACKBONE|DICT|INTERRES
    85   42  106 1    
    86   43   44 2    
    87   43   45 1    
    88   45   46 1    
    89   45   49 1    
    90   45  107 1    
    91   46   47 1    
    92   46  108 1    
    93   46  109 1    
    94   47   48 1    
    95   48  110 1    
    96   48  111 1    
    97   49   50 am   BACKBONE|DICT|INTERRES
    98   49  112 1    
    99   50   51 2    
   100   50   52 1    
   101   52   53 1    
   102   52   54 1    
   103   52  113 1    
   104   53  114 1    
   105   53  115 1    
   106   53  116 1    
   107   54   55 am   BACKBONE|DICT|INTERRES
   108   54  117 1    
   109   55   56 2    
   110   55   57 1    
   111   57   58 1    
   112   57   59 1    
   113   57  118 1    
   114   58  119 1    
   115   58  120 1    
   116   58  121 1    
   117   59   60 am   BACKBONE|DICT|INTERRES
   118   59  122 1    
   119   60   61 2    
   120   60   62 1    
   121   62   63 1    
   122   62   64 1    
   123   62  123 1    
   124   63  124 1    
   125   63  125 1    
   126   63  126 1    
   127   64   65 am   BACKBONE|DICT|INTERRES
   128   64  127 1    
   129   65   66 2    
@<TRIPOS>SUBSTRUCTURE
     1 UNK         1 GROUP             0       ****    0 ROOT    
