@<TRIPOS>MOLECULE
3R135
127   129    1
SMALL
USER_CHARGES


@<TRIPOS>ATOM
      1 CA        -82.9088   28.0576  -76.0841 C.3       0 UNK        -0.1998 
      2 C         -81.5455   27.5609  -75.6304 C.2       0 UNK         0.4909 
      3 O         -81.3166   26.3514  -75.6168 O.2       0 UNK        -0.5240 
      4 N         -80.6389   28.4872  -75.2826 N.am      1 UNK        -0.4739 
      5 CA        -79.2829   28.2520  -74.7575 C.3       1 UNK         0.0864 
      6 C6        -79.2697   27.8120  -73.2745 C.3       11 UNK        -0.0881 
      7 S7        -79.9906   29.0538  -72.1443 S.3       11 UNK        -0.2682 
      8 C8        -78.5126   29.9525  -71.5367 C.3       11 UNK         0.0289 
      9 C9        -77.4207   29.0961  -70.8882 C.ar      11 UNK        -0.0687 
     10 C10       -77.6717   27.8128  -70.3892 C.ar      11 UNK        -0.0823 
     11 C11       -76.6285   27.0089  -69.9253 C.ar      11 UNK        -0.0830 
     12 C12       -75.3365   27.5342  -69.8569 C.ar      11 UNK        -0.1021 
     13 C13       -75.0733   28.8400  -70.2796 C.ar      11 UNK        -0.0753 
     14 C14       -76.1190   29.6034  -70.8180 C.ar      11 UNK        -0.0933 
     15 C15       -73.6389   29.3598  -70.1923 C.3       11 UNK         0.0166 
     16 S16       -73.4957   31.1741  -70.0394 S.3       11 UNK        -0.2615 
     17 C17       -72.2509   31.5491  -71.3198 C.3       11 UNK        -0.0865 
     18 CA        -72.8841   32.0576  -72.6405 C.3       10 UNK         0.0862 
     19 C         -71.7745   32.5473  -73.6117 C.2       10 UNK         0.5551 
     20 N         -71.4436   33.8307  -73.5793 N.am      10 UNK        -0.7319 
     21 O         -71.1834   31.7664  -74.3556 O.2       10 UNK        -0.5018 
     22 N         -73.7528   31.0440  -73.2598 N.am      10 UNK        -0.4509 
     23 C         -74.5633   31.2639  -74.3011 C.2       10 UNK         0.4899 
     24 O         -74.7683   32.3823  -74.7766 O.2       10 UNK        -0.4839 
     25 CA        -75.2395   30.0253  -74.9264 C.3       9 UNK         0.0222 
     26 CB        -76.1559   30.3989  -76.1068 C.3       9 UNK        -0.1966 
     27 N         -74.2524   29.0506  -75.3989 N.am      9 UNK        -0.4218 
     28 C         -73.5493   28.2049  -74.6377 C.2       9 UNK         0.5020 
     29 O         -73.6942   28.1205  -73.4183 O.2       9 UNK        -0.5274 
     30 CA        -72.4945   27.3375  -75.3538 C.3       8 UNK         0.0270 
     31 CB        -71.6898   26.4637  -74.3734 C.3       8 UNK        -0.1976 
     32 N         -73.0636   26.4714  -76.3883 N.am      8 UNK        -0.4313 
     33 C         -73.5325   26.8516  -77.5816 C.2       8 UNK         0.5041 
     34 O         -73.5775   28.0284  -77.9441 O.2       8 UNK        -0.5577 
     35 CA        -74.0523   25.7602  -78.5370 C.3       7 UNK         0.0284 
     36 CB        -72.9445   25.3133  -79.5106 C.3       7 UNK        -0.1958 
     37 N         -74.6980   24.6051  -77.8910 N.am      7 UNK        -0.4454 
     38 C         -74.1547   23.6606  -77.1138 C.2       7 UNK         0.5089 
     39 O         -72.9708   23.6516  -76.7719 O.2       7 UNK        -0.5125 
     40 CA        -75.1137   22.5599  -76.6252 C.3       6 UNK         0.0408 
     41 CB        -74.3615   21.2734  -76.2268 C.3       6 UNK        -0.1791 
     42 N         -75.9920   22.9876  -75.5274 N.am      6 UNK        -0.4762 
     43 C         -75.6412   23.4957  -74.3325 C.2       6 UNK         0.5007 
     44 O         -74.4902   23.8112  -74.0311 O.2       6 UNK        -0.5032 
     45 CA        -76.7558   23.5984  -73.2699 C.3       5 UNK         0.0783 
     46 C46       -76.5373   24.7402  -72.2408 C.3       11 UNK        -0.0857 
     47 S47       -77.7327   24.6315  -70.8599 S.3       11 UNK        -0.2512 
     48 C48       -76.8928   25.5618  -69.5328 C.3       11 UNK         0.0225 
     49 N         -78.0835   23.6606  -73.8961 N.am      5 UNK        -0.4615 
     50 C         -79.0414   22.7410  -73.7203 C.2       4 UNK         0.5053 
     51 O         -78.8803   21.6930  -73.0938 O.2       4 UNK        -0.5105 
     52 CA        -80.4194   23.0266  -74.3337 C.3       4 UNK         0.0263 
     53 CB        -81.2784   23.8561  -73.3666 C.3       4 UNK        -0.1981 
     54 N         -80.3608   23.6943  -75.6342 N.am      4 UNK        -0.4224 
     55 C         -80.0066   23.0849  -76.7741 C.2       3 UNK         0.4895 
     56 O         -79.5860   21.9292  -76.8342 O.2       3 UNK        -0.5091 
     57 CA        -80.1644   23.8962  -78.0670 C.3       3 UNK         0.0250 
     58 CB        -81.6491   24.0857  -78.4226 C.3       3 UNK        -0.1996 
     59 N         -79.5148   25.1994  -77.9604 N.am      3 UNK        -0.4254 
     60 C         -78.2080   25.4038  -78.1664 C.2       2 UNK         0.5004 
     61 O         -77.4186   24.5222  -78.5056 O.2       2 UNK        -0.5226 
     62 CA        -77.6776   26.8304  -77.9482 C.3       2 UNK         0.0269 
     63 CB        -77.6386   27.6066  -79.2734 C.3       2 UNK        -0.1926 
     64 N         -78.4341   27.5941  -76.9560 N.am      2 UNK        -0.4687 
     65 C         -78.4550   27.3009  -75.6488 C.2       1 UNK         0.5165 
     66 O         -77.8835   26.3208  -75.1650 O.2       1 UNK        -0.5079 
     67 H67       -83.1094   27.7235  -77.1016 H         1 UNK         0.0900 
     68 H68       -83.6861   27.6565  -75.4344 H         1 UNK         0.0900 
     69 H69       -82.9760   29.1451  -76.0629 H         1 UNK         0.0900 
     70 H70       -80.9071   29.4603  -75.3314 H         1 UNK         0.2959 
     71 H71       -78.7656   29.2113  -74.8099 H         1 UNK         0.1079 
     72 H72       -79.8206   26.8800  -73.1506 H         1 UNK         0.0837 
     73 H73       -78.2488   27.5938  -72.9625 H         1 UNK         0.0837 
     74 H74       -78.8387   30.7009  -70.8136 H         1 UNK         0.0685 
     75 H75       -78.0879   30.5016  -72.3787 H         1 UNK         0.0685 
     76 H76       -78.6697   27.3998  -70.4225 H         1 UNK         0.1434 
     77 H77       -74.5270   26.9194  -69.4873 H         1 UNK         0.1329 
     78 H78       -75.9224   30.5960  -71.1978 H         1 UNK         0.1335 
     79 H79       -73.0972   29.0059  -71.0680 H         1 UNK         0.0680 
     80 H80       -73.1385   28.9174  -69.3296 H         1 UNK         0.0680 
     81 H81       -71.6134   30.6814  -71.4997 H         1 UNK         0.1032 
     82 H82       -71.5918   32.3137  -70.9035 H         1 UNK         0.1032 
     83 H83       -73.5179   32.9136  -72.3991 H         1 UNK         0.0461 
     84 H84       -71.9167   34.4762  -72.9658 H         1 UNK         0.3453 
     85 H85       -70.7141   34.1645  -74.1898 H         1 UNK         0.3453 
     86 H86       -73.6240   30.0830  -72.9611 H         1 UNK         0.2984 
     87 H87       -75.8533   29.5554  -74.1546 H         1 UNK         0.0554 
     88 H88       -76.9766   31.0384  -75.7796 H         1 UNK         0.0847 
     89 H89       -76.5902   29.5159  -76.5696 H         1 UNK         0.0847 
     90 H90       -75.6121   30.9370  -76.8845 H         1 UNK         0.0847 
     91 H91       -74.0630   29.0265  -76.3988 H         1 UNK         0.3141 
     92 H92       -71.7948   28.0241  -75.8348 H         1 UNK         0.0743 
     93 H93       -71.2087   27.0735  -73.6074 H         1 UNK         0.0784 
     94 H94       -70.9034   25.9104  -74.8870 H         1 UNK         0.0784 
     95 H95       -72.3293   25.7413  -73.8636 H         1 UNK         0.0784 
     96 H96       -73.0492   25.4715  -76.2021 H         1 UNK         0.3213 
     97 H97       -74.8318   26.2287  -79.1388 H         1 UNK         0.0855 
     98 H98       -72.1041   24.8515  -78.9916 H         1 UNK         0.0814 
     99 H99       -72.5503   26.1650  -80.0666 H         1 UNK         0.0814 
    100 H100      -73.3228   24.5979  -80.2408 H         1 UNK         0.0814 
    101 H101      -75.6944   24.5096  -78.0931 H         1 UNK         0.3105 
    102 H102      -75.7660   22.3089  -77.4634 H         1 UNK         0.0547 
    103 H103      -75.0540   20.4713  -75.9722 H         1 UNK         0.0837 
    104 H104      -73.7054   21.4338  -75.3704 H         1 UNK         0.0837 
    105 H105      -73.7395   20.9158  -77.0483 H         1 UNK         0.0837 
    106 H106      -76.9756   22.7976  -75.6649 H         1 UNK         0.3020 
    107 H107      -76.6586   22.6643  -72.7121 H         1 UNK         0.1245 
    108 H108      -76.6286   25.7167  -72.7195 H         1 UNK         0.0781 
    109 H109      -75.5311   24.6969  -71.8201 H         1 UNK         0.0781 
    110 H110      -75.9652   25.0489  -69.2740 H         1 UNK         0.0836 
    111 H111      -77.5163   25.5449  -68.6380 H         1 UNK         0.0836 
    112 H112      -78.2754   24.5052  -74.4276 H         1 UNK         0.3022 
    113 H113      -80.9179   22.0650  -74.4755 H         1 UNK         0.0747 
    114 H114      -82.2849   24.0056  -73.7576 H         1 UNK         0.0793 
    115 H115      -81.3740   23.3565  -72.4017 H         1 UNK         0.0793 
    116 H116      -80.8430   24.8373  -73.1827 H         1 UNK         0.0793 
    117 H117      -80.6896   24.6595  -75.6668 H         1 UNK         0.3047 
    118 H118      -79.6982   23.3299  -78.8768 H         1 UNK         0.0822 
    119 H119      -81.7636   24.5969  -79.3785 H         1 UNK         0.0807 
    120 H120      -82.1809   24.6667  -77.6679 H         1 UNK         0.0807 
    121 H121      -82.1547   23.1229  -78.5085 H         1 UNK         0.0807 
    122 H122      -80.0772   25.9666  -77.6185 H         1 UNK         0.2946 
    123 H123      -76.6570   26.7400  -77.5730 H         1 UNK         0.1144 
    124 H124      -77.1539   28.5756  -79.1510 H         1 UNK         0.0793 
    125 H125      -78.6396   27.7775  -79.6713 H         1 UNK         0.0793 
    126 H126      -77.0768   27.0598  -80.0321 H         1 UNK         0.0793 
    127 H127      -78.9601   28.3906  -77.2869 H         1 UNK         0.2896 
@<TRIPOS>BOND
     1    1    2 1    
     2    1   67 1    
     3    1   68 1    
     4    1   69 1    
     5    2    3 2    
     6    2    4 am   BACKBONE|DICT|INTERRES
     7    4    5 1    
     8    4   70 1    
     9    5    6 1    
    10    5   65 1    
    11    5   71 1    
    12    6    7 1    
    13    6   72 1    
    14    6   73 1    
    15    7    8 1    
    16    8    9 1    
    17    8   74 1    
    18    8   75 1    
    19    9   10 ar   
    20    9   14 ar   
    21   10   11 ar   
    22   10   76 1    
    23   11   12 ar   
    24   11   48 1    
    25   12   13 ar   
    26   12   77 1    
    27   13   14 ar   
    28   13   15 1    
    29   14   78 1    
    30   15   16 1    
    31   15   79 1    
    32   15   80 1    
    33   16   17 1    
    34   17   18 1    
    35   17   81 1    
    36   17   82 1    
    37   18   19 1    
    38   18   22 1    
    39   18   83 1    
    40   19   20 am   BACKBONE|DICT|INTERRES
    41   19   21 2    
    42   20   84 1    
    43   20   85 1    
    44   22   23 am   BACKBONE|DICT|INTERRES
    45   22   86 1    
    46   23   24 2    
    47   23   25 1    
    48   25   26 1    
    49   25   27 1    
    50   25   87 1    
    51   26   88 1    
    52   26   89 1    
    53   26   90 1    
    54   27   28 am   BACKBONE|DICT|INTERRES
    55   27   91 1    
    56   28   29 2    
    57   28   30 1    
    58   30   31 1    
    59   30   32 1    
    60   30   92 1    
    61   31   93 1    
    62   31   94 1    
    63   31   95 1    
    64   32   33 am   BACKBONE|DICT|INTERRES
    65   32   96 1    
    66   33   34 2    
    67   33   35 1    
    68   35   36 1    
    69   35   37 1    
    70   35   97 1    
    71   36   98 1    
    72   36   99 1    
    73   36  100 1    
    74   37   38 am   BACKBONE|DICT|INTERRES
    75   37  101 1    
    76   38   39 2    
    77   38   40 1    
    78   40   41 1    
    79   40   42 1    
    80   40  102 1    
    81   41  103 1    
    82   41  104 1    
    83   41  105 1    
    84   42   43 am   BACKBONE|DICT|INTERRES
    85   42  106 1    
    86   43   44 2    
    87   43   45 1    
    88   45   46 1    
    89   45   49 1    
    90   45  107 1    
    91   46   47 1    
    92   46  108 1    
    93   46  109 1    
    94   47   48 1    
    95   48  110 1    
    96   48  111 1    
    97   49   50 am   BACKBONE|DICT|INTERRES
    98   49  112 1    
    99   50   51 2    
   100   50   52 1    
   101   52   53 1    
   102   52   54 1    
   103   52  113 1    
   104   53  114 1    
   105   53  115 1    
   106   53  116 1    
   107   54   55 am   BACKBONE|DICT|INTERRES
   108   54  117 1    
   109   55   56 2    
   110   55   57 1    
   111   57   58 1    
   112   57   59 1    
   113   57  118 1    
   114   58  119 1    
   115   58  120 1    
   116   58  121 1    
   117   59   60 am   BACKBONE|DICT|INTERRES
   118   59  122 1    
   119   60   61 2    
   120   60   62 1    
   121   62   63 1    
   122   62   64 1    
   123   62  123 1    
   124   63  124 1    
   125   63  125 1    
   126   63  126 1    
   127   64   65 am   BACKBONE|DICT|INTERRES
   128   64  127 1    
   129   65   66 2    
@<TRIPOS>SUBSTRUCTURE
     1 UNK         1 GROUP             0       ****    0 ROOT    
