@<TRIPOS>MOLECULE
3R135
127   129    1
SMALL
USER_CHARGES


@<TRIPOS>ATOM
      1 CA        -84.9472   25.6759  -68.7725 C.3       0 UNK        -0.1998 
      2 C         -84.2249   25.8473  -70.1005 C.2       0 UNK         0.4909 
      3 O         -84.8283   25.6446  -71.1543 O.2       0 UNK        -0.5240 
      4 N         -82.9404   26.2264  -70.0558 N.am      1 UNK        -0.4739 
      5 CA        -82.0703   26.3991  -71.2249 C.3       1 UNK         0.0864 
      6 C6        -80.7785   27.1625  -70.8349 C.3       11 UNK        -0.0881 
      7 S7        -79.7238   27.6256  -72.2494 S.3       11 UNK        -0.2682 
      8 C8        -80.2640   29.3338  -72.5525 C.3       11 UNK         0.0289 
      9 C9        -79.3337   30.0290  -73.5328 C.ar      11 UNK        -0.0687 
     10 C10       -79.6394   30.0782  -74.8973 C.ar      11 UNK        -0.0823 
     11 C11       -78.7836   30.7310  -75.7917 C.ar      11 UNK        -0.0830 
     12 C12       -77.6236   31.3434  -75.3059 C.ar      11 UNK        -0.1021 
     13 C13       -77.2922   31.2694  -73.9523 C.ar      11 UNK        -0.0753 
     14 C14       -78.1569   30.6220  -73.0671 C.ar      11 UNK        -0.0933 
     15 C15       -75.9821   31.8628  -73.4604 C.3       11 UNK         0.0166 
     16 S16       -74.5691   30.8372  -73.9761 S.3       11 UNK        -0.2615 
     17 C17       -74.8903   29.2881  -73.0603 C.3       11 UNK        -0.0865 
     18 CA        -73.5835   28.6222  -72.5610 C.3       10 UNK         0.0862 
     19 C         -73.8744   27.4273  -71.6040 C.2       10 UNK         0.5551 
     20 N         -73.3303   26.2350  -71.8209 N.am      10 UNK        -0.7319 
     21 O         -74.6020   27.5909  -70.6280 O.2       10 UNK        -0.5018 
     22 N         -72.6874   28.2923  -73.6798 N.am      10 UNK        -0.4509 
     23 C         -71.3519   28.2442  -73.5929 C.2       10 UNK         0.4899 
     24 O         -70.7210   28.5543  -72.5807 O.2       10 UNK        -0.4839 
     25 CA        -70.6003   27.7490  -74.8454 C.3       9 UNK         0.0222 
     26 CB        -69.1465   27.3266  -74.5457 C.3       9 UNK        -0.1966 
     27 N         -71.3105   26.6793  -75.5582 N.am      9 UNK        -0.4218 
     28 C         -71.7118   25.4980  -75.0593 C.2       9 UNK         0.5020 
     29 O         -71.4911   25.1427  -73.9006 O.2       9 UNK        -0.5274 
     30 CA        -72.5345   24.5686  -75.9718 C.3       8 UNK         0.0270 
     31 CB        -73.8424   24.1506  -75.2804 C.3       8 UNK        -0.1976 
     32 N         -72.8593   25.1894  -77.2578 N.am      8 UNK        -0.4313 
     33 C         -72.1290   25.0726  -78.3751 C.2       8 UNK         0.5041 
     34 O         -71.1545   24.3277  -78.4825 O.2       8 UNK        -0.5577 
     35 CA        -72.5168   25.9775  -79.5597 C.3       7 UNK         0.0284 
     36 CB        -73.4068   25.2235  -80.5607 C.3       7 UNK        -0.1958 
     37 N         -73.1758   27.2196  -79.1373 N.am      7 UNK        -0.4454 
     38 C         -72.5578   28.2072  -78.4708 C.2       7 UNK         0.5089 
     39 O         -71.3613   28.1835  -78.1853 O.2       7 UNK        -0.5125 
     40 CA        -73.4107   29.3939  -77.9894 C.3       6 UNK         0.0408 
     41 CB        -73.3076   30.5670  -78.9753 C.3       6 UNK        -0.1791 
     42 N         -74.8204   29.0613  -77.7811 N.am      6 UNK        -0.4762 
     43 C         -75.2925   28.2069  -76.8652 C.2       6 UNK         0.5007 
     44 O         -74.5623   27.5992  -76.0750 O.2       6 UNK        -0.5032 
     45 CA        -76.8257   27.9747  -76.8378 C.3       5 UNK         0.0783 
     46 C46       -77.6108   28.4850  -78.0873 C.3       11 UNK        -0.0857 
     47 S47       -77.6836   30.2955  -78.3183 S.3       11 UNK        -0.2512 
     48 C48       -79.1070   30.7742  -77.2804 C.3       11 UNK         0.0225 
     49 N         -77.1530   26.5680  -76.5790 N.am      5 UNK        -0.4615 
     50 C         -76.7836   25.5163  -77.3225 C.2       4 UNK         0.5053 
     51 O         -76.0159   25.6018  -78.2821 O.2       4 UNK        -0.5105 
     52 CA        -77.3817   24.1456  -76.9385 C.3       4 UNK         0.0263 
     53 CB        -76.8163   22.9937  -77.7924 C.3       4 UNK        -0.1981 
     54 N         -77.2160   23.8201  -75.5175 N.am      4 UNK        -0.4224 
     55 C         -77.9421   24.3374  -74.5194 C.2       3 UNK         0.4895 
     56 O         -78.8241   25.1814  -74.6884 O.2       3 UNK        -0.5091 
     57 CA        -77.5876   23.8806  -73.0962 C.3       3 UNK         0.0250 
     58 CB        -76.6694   24.9111  -72.4185 C.3       3 UNK        -0.1996 
     59 N         -78.7957   23.7072  -72.2895 N.am      3 UNK        -0.4254 
     60 C         -79.6587   22.6897  -72.4222 C.2       2 UNK         0.5004 
     61 O         -79.4742   21.7339  -73.1774 O.2       2 UNK        -0.5226 
     62 CA        -80.9392   22.7281  -71.5653 C.3       2 UNK         0.0269 
     63 CB        -80.7981   21.8045  -70.3442 C.3       2 UNK        -0.1926 
     64 N         -81.3067   24.0722  -71.1075 N.am      2 UNK        -0.4687 
     65 C         -81.7761   25.0444  -71.9043 C.2       1 UNK         0.5165 
     66 O         -82.0014   24.8951  -73.1058 O.2       1 UNK        -0.5079 
     67 H67       -85.8078   26.3425  -68.7247 H         1 UNK         0.0900 
     68 H68       -84.3002   25.8967  -67.9238 H         1 UNK         0.0900 
     69 H69       -85.3035   24.6513  -68.6693 H         1 UNK         0.0900 
     70 H70       -82.5083   26.3854  -69.1564 H         1 UNK         0.2959 
     71 H71       -82.6143   27.0100  -71.9492 H         1 UNK         0.1079 
     72 H72       -81.0383   28.0680  -70.2843 H         1 UNK         0.0837 
     73 H73       -80.1742   26.5697  -70.1458 H         1 UNK         0.0837 
     74 H74       -81.2876   29.3291  -72.9303 H         1 UNK         0.0685 
     75 H75       -80.2813   29.8884  -71.6130 H         1 UNK         0.0685 
     76 H76       -80.5422   29.6054  -75.2599 H         1 UNK         0.1434 
     77 H77       -76.9527   31.8473  -75.9886 H         1 UNK         0.1329 
     78 H78       -77.9093   30.5645  -72.0159 H         1 UNK         0.1335 
     79 H79       -75.9809   31.9700  -72.3745 H         1 UNK         0.0680 
     80 H80       -75.8609   32.8668  -73.8697 H         1 UNK         0.0680 
     81 H81       -75.4542   28.6067  -73.6993 H         1 UNK         0.1032 
     82 H82       -75.5408   29.5136  -72.2135 H         1 UNK         0.1032 
     83 H83       -73.0774   29.3622  -71.9380 H         1 UNK         0.0461 
     84 H84       -72.6946   26.0740  -72.5941 H         1 UNK         0.3453 
     85 H85       -73.5262   25.4874  -71.1759 H         1 UNK         0.3453 
     86 H86       -73.1433   28.0157  -74.5421 H         1 UNK         0.2984 
     87 H87       -70.5628   28.5982  -75.5289 H         1 UNK         0.0554 
     88 H88       -68.6331   27.0032  -75.4511 H         1 UNK         0.0847 
     89 H89       -69.1034   26.5092  -73.8250 H         1 UNK         0.0847 
     90 H90       -68.5743   28.1569  -74.1302 H         1 UNK         0.0847 
     91 H91       -71.5266   26.8870  -76.5260 H         1 UNK         0.3141 
     92 H92       -71.9361   23.6698  -76.1337 H         1 UNK         0.0743 
     93 H93       -74.5011   25.0046  -75.1186 H         1 UNK         0.0784 
     94 H94       -74.3747   23.4137  -75.8781 H         1 UNK         0.0784 
     95 H95       -73.6526   23.6936  -74.3082 H         1 UNK         0.0784 
     96 H96       -73.6465   25.8284  -77.2605 H         1 UNK         0.3213 
     97 H97       -71.5925   26.2506  -80.0741 H         1 UNK         0.0855 
     98 H98       -74.3406   24.8910  -80.1082 H         1 UNK         0.0814 
     99 H99       -72.8979   24.3351  -80.9372 H         1 UNK         0.0814 
    100 H100      -73.6521   25.8444  -81.4223 H         1 UNK         0.0814 
    101 H101      -74.1717   27.2894  -79.2967 H         1 UNK         0.3105 
    102 H102      -73.0047   29.7192  -77.0289 H         1 UNK         0.0547 
    103 H103      -73.7226   30.3131  -79.9514 H         1 UNK         0.0837 
    104 H104      -73.8355   31.4453  -78.6033 H         1 UNK         0.0837 
    105 H105      -72.2673   30.8576  -79.1286 H         1 UNK         0.0837 
    106 H106      -75.4949   29.5393  -78.3658 H         1 UNK         0.3020 
    107 H107      -77.1804   28.5193  -75.9629 H         1 UNK         0.1245 
    108 H108      -77.2001   28.0446  -78.9978 H         1 UNK         0.0781 
    109 H109      -78.6405   28.1266  -78.0399 H         1 UNK         0.0781 
    110 H110      -79.4012   31.7919  -77.5401 H         1 UNK         0.0836 
    111 H111      -79.9600   30.1372  -77.5194 H         1 UNK         0.0836 
    112 H112      -77.7751   26.3846  -75.7966 H         1 UNK         0.3022 
    113 H113      -78.4516   24.2064  -77.1493 H         1 UNK         0.0747 
    114 H114      -77.2715   22.0395  -77.5264 H         1 UNK         0.0793 
    115 H115      -77.0188   23.1604  -78.8513 H         1 UNK         0.0793 
    116 H116      -75.7363   22.8947  -77.6846 H         1 UNK         0.0793 
    117 H117      -76.4954   23.1496  -75.2943 H         1 UNK         0.3047 
    118 H118      -77.0628   22.9239  -73.1452 H         1 UNK         0.0822 
    119 H119      -76.3903   24.5970  -71.4127 H         1 UNK         0.0807 
    120 H120      -77.1434   25.8908  -72.3437 H         1 UNK         0.0807 
    121 H121      -75.7458   25.0427  -72.9825 H         1 UNK         0.0807 
    122 H122      -79.0515   24.4739  -71.6857 H         1 UNK         0.2946 
    123 H123      -81.7519   22.3487  -72.1894 H         1 UNK         0.1144 
    124 H124      -81.7259   21.7552  -69.7737 H         1 UNK         0.0793 
    125 H125      -80.0065   22.1398  -69.6729 H         1 UNK         0.0793 
    126 H126      -80.5550   20.7861  -70.6511 H         1 UNK         0.0793 
    127 H127      -81.1855   24.2684  -70.1243 H         1 UNK         0.2896 
@<TRIPOS>BOND
     1    1    2 1    
     2    1   67 1    
     3    1   68 1    
     4    1   69 1    
     5    2    3 2    
     6    2    4 am   BACKBONE|DICT|INTERRES
     7    4    5 1    
     8    4   70 1    
     9    5    6 1    
    10    5   65 1    
    11    5   71 1    
    12    6    7 1    
    13    6   72 1    
    14    6   73 1    
    15    7    8 1    
    16    8    9 1    
    17    8   74 1    
    18    8   75 1    
    19    9   10 ar   
    20    9   14 ar   
    21   10   11 ar   
    22   10   76 1    
    23   11   12 ar   
    24   11   48 1    
    25   12   13 ar   
    26   12   77 1    
    27   13   14 ar   
    28   13   15 1    
    29   14   78 1    
    30   15   16 1    
    31   15   79 1    
    32   15   80 1    
    33   16   17 1    
    34   17   18 1    
    35   17   81 1    
    36   17   82 1    
    37   18   19 1    
    38   18   22 1    
    39   18   83 1    
    40   19   20 am   BACKBONE|DICT|INTERRES
    41   19   21 2    
    42   20   84 1    
    43   20   85 1    
    44   22   23 am   BACKBONE|DICT|INTERRES
    45   22   86 1    
    46   23   24 2    
    47   23   25 1    
    48   25   26 1    
    49   25   27 1    
    50   25   87 1    
    51   26   88 1    
    52   26   89 1    
    53   26   90 1    
    54   27   28 am   BACKBONE|DICT|INTERRES
    55   27   91 1    
    56   28   29 2    
    57   28   30 1    
    58   30   31 1    
    59   30   32 1    
    60   30   92 1    
    61   31   93 1    
    62   31   94 1    
    63   31   95 1    
    64   32   33 am   BACKBONE|DICT|INTERRES
    65   32   96 1    
    66   33   34 2    
    67   33   35 1    
    68   35   36 1    
    69   35   37 1    
    70   35   97 1    
    71   36   98 1    
    72   36   99 1    
    73   36  100 1    
    74   37   38 am   BACKBONE|DICT|INTERRES
    75   37  101 1    
    76   38   39 2    
    77   38   40 1    
    78   40   41 1    
    79   40   42 1    
    80   40  102 1    
    81   41  103 1    
    82   41  104 1    
    83   41  105 1    
    84   42   43 am   BACKBONE|DICT|INTERRES
    85   42  106 1    
    86   43   44 2    
    87   43   45 1    
    88   45   46 1    
    89   45   49 1    
    90   45  107 1    
    91   46   47 1    
    92   46  108 1    
    93   46  109 1    
    94   47   48 1    
    95   48  110 1    
    96   48  111 1    
    97   49   50 am   BACKBONE|DICT|INTERRES
    98   49  112 1    
    99   50   51 2    
   100   50   52 1    
   101   52   53 1    
   102   52   54 1    
   103   52  113 1    
   104   53  114 1    
   105   53  115 1    
   106   53  116 1    
   107   54   55 am   BACKBONE|DICT|INTERRES
   108   54  117 1    
   109   55   56 2    
   110   55   57 1    
   111   57   58 1    
   112   57   59 1    
   113   57  118 1    
   114   58  119 1    
   115   58  120 1    
   116   58  121 1    
   117   59   60 am   BACKBONE|DICT|INTERRES
   118   59  122 1    
   119   60   61 2    
   120   60   62 1    
   121   62   63 1    
   122   62   64 1    
   123   62  123 1    
   124   63  124 1    
   125   63  125 1    
   126   63  126 1    
   127   64   65 am   BACKBONE|DICT|INTERRES
   128   64  127 1    
   129   65   66 2    
@<TRIPOS>SUBSTRUCTURE
     1 UNK         1 GROUP             0       ****    0 ROOT    
