@<TRIPOS>MOLECULE
3R135
127   129    1
SMALL
USER_CHARGES


@<TRIPOS>ATOM
      1 CA        -84.1070   25.1858  -70.8477 C.3       0 UNK        -0.1998 
      2 C         -83.8754   26.1049  -72.0374 C.2       0 UNK         0.4909 
      3 O         -84.8100   26.7646  -72.4925 O.2       0 UNK        -0.5240 
      4 N         -82.6376   26.1491  -72.5490 N.am      1 UNK        -0.4739 
      5 CA        -82.2361   26.9725  -73.6999 C.3       1 UNK         0.0864 
      6 C6        -80.7205   27.3117  -73.6464 C.3       11 UNK        -0.0881 
      7 S7        -80.3804   29.0038  -74.2400 S.3       11 UNK        -0.2682 
      8 C8        -79.7664   29.8193  -72.7326 C.3       11 UNK         0.0289 
      9 C9        -78.3175   29.4508  -72.4493 C.ar      11 UNK        -0.0687 
     10 C10       -77.9935   28.5477  -71.4322 C.ar      11 UNK        -0.0823 
     11 C11       -76.6585   28.2161  -71.1756 C.ar      11 UNK        -0.0830 
     12 C12       -75.6457   28.7984  -71.9444 C.ar      11 UNK        -0.1021 
     13 C13       -75.9591   29.6993  -72.9660 C.ar      11 UNK        -0.0753 
     14 C14       -77.2954   30.0259  -73.2086 C.ar      11 UNK        -0.0933 
     15 C15       -74.8664   30.2957  -73.8373 C.3       11 UNK         0.0166 
     16 S16       -74.1874   31.8251  -73.1198 S.3       11 UNK        -0.2615 
     17 C17       -72.7421   31.1959  -72.1953 C.3       11 UNK        -0.0865 
     18 CA        -71.4212   31.3417  -72.9985 C.3       10 UNK         0.0862 
     19 C         -70.1842   30.9497  -72.1367 C.2       10 UNK         0.5551 
     20 N         -69.3576   29.9900  -72.5381 N.am      10 UNK        -0.7319 
     21 O         -69.9659   31.5378  -71.0804 O.2       10 UNK        -0.5018 
     22 N         -71.5024   30.6357  -74.2846 N.am      10 UNK        -0.4509 
     23 C         -70.8147   30.9387  -75.3903 C.2       10 UNK         0.4899 
     24 O         -70.0594   31.9071  -75.4868 O.2       10 UNK        -0.4839 
     25 CA        -71.0132   29.9830  -76.5859 C.3       9 UNK         0.0222 
     26 CB        -69.8372   30.0285  -77.5842 C.3       9 UNK        -0.1966 
     27 N         -71.3001   28.5959  -76.1860 N.am      9 UNK        -0.4218 
     28 C         -70.5258   27.7930  -75.4348 C.2       9 UNK         0.5020 
     29 O         -69.4524   28.1472  -74.9445 O.2       9 UNK        -0.5274 
     30 CA        -71.0410   26.3726  -75.1303 C.3       8 UNK         0.0270 
     31 CB        -71.3331   26.2245  -73.6269 C.3       8 UNK        -0.1976 
     32 N         -72.2354   25.9992  -75.8964 N.am      8 UNK        -0.4313 
     33 C         -72.2297   25.6855  -77.2024 C.2       8 UNK         0.5041 
     34 O         -71.2012   25.6345  -77.8779 O.2       8 UNK        -0.5577 
     35 CA        -73.5782   25.3962  -77.8904 C.3       7 UNK         0.0284 
     36 CB        -73.6845   23.9103  -78.2710 C.3       7 UNK        -0.1958 
     37 N         -74.7462   25.7798  -77.0928 N.am      7 UNK        -0.4454 
     38 C         -75.1280   27.0458  -76.8613 C.2       7 UNK         0.5089 
     39 O         -74.5340   28.0265  -77.3111 O.2       7 UNK        -0.5125 
     40 CA        -76.3437   27.2614  -75.9377 C.3       6 UNK         0.0408 
     41 CB        -77.6178   27.4501  -76.7722 C.3       6 UNK        -0.1791 
     42 N         -76.5523   26.1883  -74.9585 N.am      6 UNK        -0.4762 
     43 C         -75.6501   25.8143  -74.0358 C.2       6 UNK         0.5007 
     44 O         -74.5412   26.3391  -73.9296 O.2       6 UNK        -0.5032 
     45 CA        -75.9968   24.5970  -73.1476 C.3       5 UNK         0.0783 
     46 C46       -76.6313   25.0164  -71.7978 C.3       11 UNK        -0.0857 
     47 S47       -75.4246   25.7591  -70.6476 S.3       11 UNK        -0.2512 
     48 C48       -76.3126   27.2393  -70.0578 C.3       11 UNK         0.0225 
     49 N         -76.8386   23.6064  -73.8274 N.am      5 UNK        -0.4615 
     50 C         -76.5657   22.9919  -74.9864 C.2       4 UNK         0.5053 
     51 O         -75.5353   23.1741  -75.6337 O.2       4 UNK        -0.5105 
     52 CA        -77.6460   22.0492  -75.5469 C.3       4 UNK         0.0263 
     53 CB        -78.5990   21.4869  -74.4672 C.3       4 UNK        -0.1981 
     54 N         -78.4208   22.6716  -76.6279 N.am      4 UNK        -0.4224 
     55 C         -79.0904   23.8343  -76.5831 C.2       3 UNK         0.4895 
     56 O         -79.0727   24.6045  -75.6200 O.2       3 UNK        -0.5091 
     57 CA        -79.9420   24.2191  -77.8092 C.3       3 UNK         0.0250 
     58 CB        -79.9084   23.2016  -78.9736 C.3       3 UNK        -0.1996 
     59 N         -81.3170   24.5144  -77.3911 N.am      3 UNK        -0.4254 
     60 C         -82.1847   23.6689  -76.8147 C.2       2 UNK         0.5004 
     61 O         -81.9898   22.4595  -76.6775 O.2       2 UNK        -0.5226 
     62 CA        -83.4588   24.3094  -76.2371 C.3       2 UNK         0.0269 
     63 CB        -84.5285   23.2686  -75.8560 C.3       2 UNK        -0.1926 
     64 N         -83.1209   25.0953  -75.0490 N.am      2 UNK        -0.4687 
     65 C         -82.6365   26.3456  -75.0583 C.2       1 UNK         0.5165 
     66 O         -82.4879   26.9909  -76.0978 O.2       1 UNK        -0.5079 
     67 H67       -83.1970   24.6647  -70.5504 H         1 UNK         0.0900 
     68 H68       -84.8616   24.4384  -71.0920 H         1 UNK         0.0900 
     69 H69       -84.4619   25.7615  -69.9931 H         1 UNK         0.0900 
     70 H70       -81.9106   25.5797  -72.1386 H         1 UNK         0.2959 
     71 H71       -82.7972   27.9075  -73.6289 H         1 UNK         0.1079 
     72 H72       -80.1226   26.6055  -74.2252 H         1 UNK         0.0837 
     73 H73       -80.3471   27.2279  -72.6255 H         1 UNK         0.0837 
     74 H74       -79.8416   30.8997  -72.8641 H         1 UNK         0.0685 
     75 H75       -80.4102   29.5709  -71.8873 H         1 UNK         0.0685 
     76 H76       -78.7819   28.1045  -70.8394 H         1 UNK         0.1434 
     77 H77       -74.6153   28.5291  -71.7596 H         1 UNK         0.1329 
     78 H78       -77.5444   30.7197  -74.0000 H         1 UNK         0.1335 
     79 H79       -75.2674   30.5279  -74.8253 H         1 UNK         0.0680 
     80 H80       -74.0797   29.5591  -74.0034 H         1 UNK         0.0680 
     81 H81       -72.6826   31.7625  -71.2639 H         1 UNK         0.1032 
     82 H82       -72.9052   30.1583  -71.9014 H         1 UNK         0.1032 
     83 H83       -71.2955   32.4040  -73.2170 H         1 UNK         0.0461 
     84 H84       -69.5027   29.4992  -73.4133 H         1 UNK         0.3453 
     85 H85       -68.5623   29.7588  -71.9647 H         1 UNK         0.3453 
     86 H86       -72.0793   29.8100  -74.2995 H         1 UNK         0.2984 
     87 H87       -71.9034   30.3359  -77.1086 H         1 UNK         0.0554 
     88 H88       -70.0051   29.3570  -78.4262 H         1 UNK         0.0847 
     89 H89       -68.8954   29.7457  -77.1126 H         1 UNK         0.0847 
     90 H90       -69.7072   31.0314  -77.9928 H         1 UNK         0.0847 
     91 H91       -72.1763   28.2181  -76.5239 H         1 UNK         0.3141 
     92 H92       -70.2400   25.6767  -75.3883 H         1 UNK         0.0743 
     93 H93       -71.7138   25.2311  -73.3890 H         1 UNK         0.0784 
     94 H94       -70.4274   26.3733  -73.0373 H         1 UNK         0.0784 
     95 H95       -72.0648   26.9561  -73.2822 H         1 UNK         0.0784 
     96 H96       -73.1188   26.0270  -75.3957 H         1 UNK         0.3213 
     97 H97       -73.5986   25.9810  -78.8127 H         1 UNK         0.0855 
     98 H98       -72.8928   23.6304  -78.9672 H         1 UNK         0.0814 
     99 H99       -74.6352   23.6874  -78.7556 H         1 UNK         0.0814 
    100 H100      -73.5898   23.2625  -77.3992 H         1 UNK         0.0814 
    101 H101      -75.2463   25.0255  -76.6338 H         1 UNK         0.3105 
    102 H102      -76.1696   28.1793  -75.3765 H         1 UNK         0.0547 
    103 H103      -77.5311   28.3216  -77.4223 H         1 UNK         0.0837 
    104 H104      -77.8093   26.5874  -77.4090 H         1 UNK         0.0837 
    105 H105      -78.4919   27.6032  -76.1398 H         1 UNK         0.0837 
    106 H106      -77.4276   25.6761  -75.0187 H         1 UNK         0.3020 
    107 H107      -75.0510   24.0923  -72.9375 H         1 UNK         0.1245 
    108 H108      -77.0392   24.1410  -71.2898 H         1 UNK         0.0781 
    109 H109      -77.4788   25.6845  -71.9595 H         1 UNK         0.0781 
    110 H110      -75.6897   27.7520  -69.3236 H         1 UNK         0.0836 
    111 H111      -77.2103   26.9207  -69.5256 H         1 UNK         0.0836 
    112 H112      -77.7374   23.4236  -73.4067 H         1 UNK         0.3022 
    113 H113      -77.1135   21.2051  -75.9880 H         1 UNK         0.0747 
    114 H114      -79.2478   20.7180  -74.8872 H         1 UNK         0.0793 
    115 H115      -78.0433   21.0235  -73.6507 H         1 UNK         0.0793 
    116 H116      -79.2449   22.2547  -74.0398 H         1 UNK         0.0793 
    117 H117      -78.4834   22.1329  -77.4800 H         1 UNK         0.3047 
    118 H118      -79.5316   25.1568  -78.1843 H         1 UNK         0.0822 
    119 H119      -80.2740   22.2170  -78.6801 H         1 UNK         0.0807 
    120 H120      -78.8964   23.0797  -79.3622 H         1 UNK         0.0807 
    121 H121      -80.5253   23.5432  -79.8049 H         1 UNK         0.0807 
    122 H122      -81.5592   25.4987  -77.3632 H         1 UNK         0.2946 
    123 H123      -83.8838   24.9625  -77.0033 H         1 UNK         0.1144 
    124 H124      -84.8045   22.6605  -76.7186 H         1 UNK         0.0793 
    125 H125      -84.1778   22.5903  -75.0771 H         1 UNK         0.0793 
    126 H126      -85.4379   23.7500  -75.4957 H         1 UNK         0.0793 
    127 H127      -83.1881   24.6231  -74.1593 H         1 UNK         0.2896 
@<TRIPOS>BOND
     1    1    2 1    
     2    1   67 1    
     3    1   68 1    
     4    1   69 1    
     5    2    3 2    
     6    2    4 am   BACKBONE|DICT|INTERRES
     7    4    5 1    
     8    4   70 1    
     9    5    6 1    
    10    5   65 1    
    11    5   71 1    
    12    6    7 1    
    13    6   72 1    
    14    6   73 1    
    15    7    8 1    
    16    8    9 1    
    17    8   74 1    
    18    8   75 1    
    19    9   10 ar   
    20    9   14 ar   
    21   10   11 ar   
    22   10   76 1    
    23   11   12 ar   
    24   11   48 1    
    25   12   13 ar   
    26   12   77 1    
    27   13   14 ar   
    28   13   15 1    
    29   14   78 1    
    30   15   16 1    
    31   15   79 1    
    32   15   80 1    
    33   16   17 1    
    34   17   18 1    
    35   17   81 1    
    36   17   82 1    
    37   18   19 1    
    38   18   22 1    
    39   18   83 1    
    40   19   20 am   BACKBONE|DICT|INTERRES
    41   19   21 2    
    42   20   84 1    
    43   20   85 1    
    44   22   23 am   BACKBONE|DICT|INTERRES
    45   22   86 1    
    46   23   24 2    
    47   23   25 1    
    48   25   26 1    
    49   25   27 1    
    50   25   87 1    
    51   26   88 1    
    52   26   89 1    
    53   26   90 1    
    54   27   28 am   BACKBONE|DICT|INTERRES
    55   27   91 1    
    56   28   29 2    
    57   28   30 1    
    58   30   31 1    
    59   30   32 1    
    60   30   92 1    
    61   31   93 1    
    62   31   94 1    
    63   31   95 1    
    64   32   33 am   BACKBONE|DICT|INTERRES
    65   32   96 1    
    66   33   34 2    
    67   33   35 1    
    68   35   36 1    
    69   35   37 1    
    70   35   97 1    
    71   36   98 1    
    72   36   99 1    
    73   36  100 1    
    74   37   38 am   BACKBONE|DICT|INTERRES
    75   37  101 1    
    76   38   39 2    
    77   38   40 1    
    78   40   41 1    
    79   40   42 1    
    80   40  102 1    
    81   41  103 1    
    82   41  104 1    
    83   41  105 1    
    84   42   43 am   BACKBONE|DICT|INTERRES
    85   42  106 1    
    86   43   44 2    
    87   43   45 1    
    88   45   46 1    
    89   45   49 1    
    90   45  107 1    
    91   46   47 1    
    92   46  108 1    
    93   46  109 1    
    94   47   48 1    
    95   48  110 1    
    96   48  111 1    
    97   49   50 am   BACKBONE|DICT|INTERRES
    98   49  112 1    
    99   50   51 2    
   100   50   52 1    
   101   52   53 1    
   102   52   54 1    
   103   52  113 1    
   104   53  114 1    
   105   53  115 1    
   106   53  116 1    
   107   54   55 am   BACKBONE|DICT|INTERRES
   108   54  117 1    
   109   55   56 2    
   110   55   57 1    
   111   57   58 1    
   112   57   59 1    
   113   57  118 1    
   114   58  119 1    
   115   58  120 1    
   116   58  121 1    
   117   59   60 am   BACKBONE|DICT|INTERRES
   118   59  122 1    
   119   60   61 2    
   120   60   62 1    
   121   62   63 1    
   122   62   64 1    
   123   62  123 1    
   124   63  124 1    
   125   63  125 1    
   126   63  126 1    
   127   64   65 am   BACKBONE|DICT|INTERRES
   128   64  127 1    
   129   65   66 2    
@<TRIPOS>SUBSTRUCTURE
     1 UNK         1 GROUP             0       ****    0 ROOT    
