@<TRIPOS>MOLECULE
3R135
127   129    1
SMALL
USER_CHARGES


@<TRIPOS>ATOM
      1 CA        -84.5991   26.9614  -73.2798 C.3       0 UNK        -0.1998 
      2 C         -83.3280   27.7844  -73.4285 C.2       0 UNK         0.4909 
      3 O         -83.2283   28.8686  -72.8537 O.2       0 UNK        -0.5240 
      4 N         -82.3599   27.2778  -74.1970 N.am      1 UNK        -0.4739 
      5 CA        -81.0813   27.9166  -74.5038 C.3       1 UNK         0.0864 
      6 C6        -80.0889   27.9008  -73.3026 C.3       11 UNK        -0.0881 
      7 S7        -79.2419   29.5070  -73.0749 S.3       11 UNK        -0.2682 
      8 C8        -77.5155   29.1553  -73.5480 C.3       11 UNK         0.0289 
      9 C9        -76.6383   28.7051  -72.3851 C.ar      11 UNK        -0.0687 
     10 C10       -76.9343   27.5360  -71.6845 C.ar      11 UNK        -0.0823 
     11 C11       -76.0484   27.0187  -70.7378 C.ar      11 UNK        -0.0830 
     12 C12       -74.8865   27.7311  -70.4254 C.ar      11 UNK        -0.1021 
     13 C13       -74.5993   28.9343  -71.0796 C.ar      11 UNK        -0.0753 
     14 C14       -75.4724   29.4066  -72.0665 C.ar      11 UNK        -0.0933 
     15 C15       -73.3143   29.6911  -70.7771 C.3       11 UNK         0.0166 
     16 S16       -73.6422   31.3961  -70.2213 S.3       11 UNK        -0.2615 
     17 C17       -72.1152   32.2495  -70.7508 C.3       11 UNK        -0.0865 
     18 CA        -72.3402   33.2043  -71.9639 C.3       10 UNK         0.0862 
     19 C         -71.0804   34.0662  -72.2871 C.2       10 UNK         0.5551 
     20 N         -70.8231   34.4136  -73.5423 N.am      10 UNK        -0.7319 
     21 O         -70.3410   34.4552  -71.3859 O.2       10 UNK        -0.5018 
     22 N         -72.9523   32.5360  -73.1309 N.am      10 UNK        -0.4509 
     23 C         -72.4128   31.5321  -73.8321 C.2       10 UNK         0.4899 
     24 O         -71.2913   31.0614  -73.6263 O.2       10 UNK        -0.4839 
     25 CA        -73.2780   30.9390  -74.9480 C.3       9 UNK         0.0222 
     26 CB        -72.9898   31.6140  -76.2997 C.3       9 UNK        -0.1966 
     27 N         -72.9783   29.5135  -75.0242 N.am      9 UNK        -0.4218 
     28 C         -73.8329   28.5498  -75.3777 C.2       9 UNK         0.5020 
     29 O         -74.9906   28.7545  -75.7536 O.2       9 UNK        -0.5274 
     30 CA        -73.3057   27.1100  -75.2433 C.3       8 UNK         0.0270 
     31 CB        -73.4845   26.6105  -73.8004 C.3       8 UNK        -0.1976 
     32 N         -73.9900   26.1962  -76.1594 N.am      8 UNK        -0.4313 
     33 C         -73.8249   26.1941  -77.4890 C.2       8 UNK         0.5041 
     34 O         -72.9749   26.8723  -78.0705 O.2       8 UNK        -0.5577 
     35 CA        -74.7889   25.3113  -78.3037 C.3       7 UNK         0.0284 
     36 CB        -74.2931   25.0153  -79.7363 C.3       7 UNK        -0.1958 
     37 N         -75.1902   24.0845  -77.6020 N.am      7 UNK        -0.4454 
     38 C         -74.4220   23.0217  -77.3215 C.2       7 UNK         0.5089 
     39 O         -73.2299   22.9359  -77.6209 O.2       7 UNK        -0.5125 
     40 CA        -75.1187   21.8484  -76.5992 C.3       6 UNK         0.0408 
     41 CB        -74.1184   20.8259  -76.0190 C.3       6 UNK        -0.1791 
     42 N         -76.0832   22.2621  -75.5709 N.am      6 UNK        -0.4762 
     43 C         -75.8330   23.0018  -74.4763 C.2       6 UNK         0.5007 
     44 O         -74.7331   23.4988  -74.2387 O.2       6 UNK        -0.5032 
     45 CA        -77.0137   23.2301  -73.5062 C.3       5 UNK         0.0783 
     46 C46       -76.8675   24.4915  -72.6224 C.3       11 UNK        -0.0857 
     47 S47       -75.7975   24.2814  -71.1558 S.3       11 UNK        -0.2512 
     48 C48       -76.3395   25.6686  -70.0951 C.3       11 UNK         0.0225 
     49 N         -78.2601   23.2893  -74.2697 N.am      5 UNK        -0.4615 
     50 C         -79.3523   22.5502  -74.0417 C.2       4 UNK         0.5053 
     51 O         -79.4532   21.7468  -73.1147 O.2       4 UNK        -0.5105 
     52 CA        -80.5357   22.7232  -75.0154 C.3       4 UNK         0.0263 
     53 CB        -81.6286   23.5886  -74.3678 C.3       4 UNK        -0.1981 
     54 N         -80.1583   23.3035  -76.3107 N.am      4 UNK        -0.4224 
     55 C         -79.3340   22.7194  -77.1959 C.2       3 UNK         0.4895 
     56 O         -78.8471   21.5997  -77.0366 O.2       3 UNK        -0.5091 
     57 CA        -78.9231   23.5313  -78.4379 C.3       3 UNK         0.0250 
     58 CB        -79.7778   23.1245  -79.6483 C.3       3 UNK        -0.1996 
     59 N         -78.9869   24.9871  -78.2724 N.am      3 UNK        -0.4254 
     60 C         -78.3488   25.7113  -77.3417 C.2       2 UNK         0.5004 
     61 O         -77.6241   25.2178  -76.4738 O.2       2 UNK        -0.5226 
     62 CA        -78.5671   27.2379  -77.3682 C.3       2 UNK         0.0269 
     63 CB        -79.2007   27.7578  -78.6781 C.3       2 UNK        -0.1926 
     64 N         -79.3428   27.7168  -76.2175 N.am      2 UNK        -0.4687 
     65 C         -80.5037   27.2297  -75.7563 C.2       1 UNK         0.5165 
     66 O         -81.1007   26.2714  -76.2609 O.2       1 UNK        -0.5079 
     67 H67       -84.7766   26.7323  -72.2294 H         1 UNK         0.0900 
     68 H68       -85.4549   27.5209  -73.6565 H         1 UNK         0.0900 
     69 H69       -84.5412   26.0202  -73.8264 H         1 UNK         0.0900 
     70 H70       -82.5053   26.4184  -74.7141 H         1 UNK         0.2959 
     71 H71       -81.3059   28.9468  -74.7901 H         1 UNK         0.1079 
     72 H72       -79.3704   27.0862  -73.3968 H         1 UNK         0.0837 
     73 H73       -80.6173   27.7025  -72.3689 H         1 UNK         0.0837 
     74 H74       -77.1013   30.0579  -74.0002 H         1 UNK         0.0685 
     75 H75       -77.4804   28.3912  -74.3243 H         1 UNK         0.0685 
     76 H76       -77.8339   26.9905  -71.9108 H         1 UNK         0.1434 
     77 H77       -74.1964   27.3365  -69.6921 H         1 UNK         0.1329 
     78 H78       -75.2276   30.3131  -72.6008 H         1 UNK         0.1335 
     79 H79       -72.7286   29.1807  -70.0111 H         1 UNK         0.0680 
     80 H80       -72.7023   29.6933  -71.6778 H         1 UNK         0.0680 
     81 H81       -71.7553   32.8154  -69.8896 H         1 UNK         0.1032 
     82 H82       -71.3314   31.5227  -70.9698 H         1 UNK         0.1032 
     83 H83       -73.0830   33.9372  -71.6468 H         1 UNK         0.0461 
     84 H84       -70.0137   34.9796  -73.7434 H         1 UNK         0.3453 
     85 H85       -71.4266   34.1091  -74.2888 H         1 UNK         0.3453 
     86 H86       -73.8691   32.8730  -73.3875 H         1 UNK         0.2984 
     87 H87       -74.3302   31.0780  -74.6912 H         1 UNK         0.0554 
     88 H88       -73.2109   32.6813  -76.2604 H         1 UNK         0.0847 
     89 H89       -73.6021   31.1858  -77.0936 H         1 UNK         0.0847 
     90 H90       -71.9438   31.5057  -76.5894 H         1 UNK         0.0847 
     91 H91       -72.0585   29.2694  -74.6770 H         1 UNK         0.3141 
     92 H92       -72.2408   27.1017  -75.4860 H         1 UNK         0.0743 
     93 H93       -72.9525   27.2476  -73.0931 H         1 UNK         0.0784 
     94 H94       -73.0969   25.5993  -73.6764 H         1 UNK         0.0784 
     95 H95       -74.5333   26.6061  -73.5027 H         1 UNK         0.0784 
     96 H96       -74.7044   25.6042  -75.7595 H         1 UNK         0.3213 
     97 H97       -75.6942   25.9077  -78.4096 H         1 UNK         0.0855 
     98 H98       -73.3319   24.5010  -79.7376 H         1 UNK         0.0814 
     99 H99       -74.1629   25.9391  -80.3013 H         1 UNK         0.0814 
    100 H100      -75.0061   24.4000  -80.2848 H         1 UNK         0.0814 
    101 H101      -76.1332   24.0975  -77.2268 H         1 UNK         0.3105 
    102 H102      -75.7020   21.3341  -77.3644 H         1 UNK         0.0547 
    103 H103      -74.6334   19.9904  -75.5454 H         1 UNK         0.0837 
    104 H104      -73.4613   21.2802  -75.2766 H         1 UNK         0.0837 
    105 H105      -73.4838   20.4098  -76.8024 H         1 UNK         0.0837 
    106 H106      -77.0288   21.9225  -75.7057 H         1 UNK         0.3020 
    107 H107      -77.0297   22.3546  -72.8530 H         1 UNK         0.1245 
    108 H108      -77.8535   24.7675  -72.2464 H         1 UNK         0.0781 
    109 H109      -76.5194   25.3357  -73.2190 H         1 UNK         0.0781 
    110 H110      -75.8317   25.5950  -69.1323 H         1 UNK         0.0836 
    111 H111      -77.4056   25.5734  -69.8833 H         1 UNK         0.0836 
    112 H112      -78.2498   23.9268  -75.0607 H         1 UNK         0.3022 
    113 H113      -80.9505   21.7313  -75.2065 H         1 UNK         0.0747 
    114 H114      -82.4756   23.7333  -75.0387 H         1 UNK         0.0793 
    115 H115      -82.0103   23.1178  -73.4608 H         1 UNK         0.0793 
    116 H116      -81.2465   24.5697  -74.0852 H         1 UNK         0.0793 
    117 H117      -80.4954   24.2410  -76.5044 H         1 UNK         0.3047 
    118 H118      -77.8844   23.2761  -78.6568 H         1 UNK         0.0822 
    119 H119      -79.4293   23.6068  -80.5618 H         1 UNK         0.0807 
    120 H120      -80.8272   23.3867  -79.5076 H         1 UNK         0.0807 
    121 H121      -79.7307   22.0474  -79.8163 H         1 UNK         0.0807 
    122 H122      -79.5859   25.4821  -78.9174 H         1 UNK         0.2946 
    123 H123      -77.5723   27.6799  -77.2813 H         1 UNK         0.1144 
    124 H124      -79.2193   28.8477  -78.6930 H         1 UNK         0.0793 
    125 H125      -80.2282   27.4145  -78.8061 H         1 UNK         0.0793 
    126 H126      -78.6277   27.4412  -79.5510 H         1 UNK         0.0793 
    127 H127      -78.9319   28.4919  -75.7164 H         1 UNK         0.2896 
@<TRIPOS>BOND
     1    1    2 1    
     2    1   67 1    
     3    1   68 1    
     4    1   69 1    
     5    2    3 2    
     6    2    4 am   BACKBONE|DICT|INTERRES
     7    4    5 1    
     8    4   70 1    
     9    5    6 1    
    10    5   65 1    
    11    5   71 1    
    12    6    7 1    
    13    6   72 1    
    14    6   73 1    
    15    7    8 1    
    16    8    9 1    
    17    8   74 1    
    18    8   75 1    
    19    9   10 ar   
    20    9   14 ar   
    21   10   11 ar   
    22   10   76 1    
    23   11   12 ar   
    24   11   48 1    
    25   12   13 ar   
    26   12   77 1    
    27   13   14 ar   
    28   13   15 1    
    29   14   78 1    
    30   15   16 1    
    31   15   79 1    
    32   15   80 1    
    33   16   17 1    
    34   17   18 1    
    35   17   81 1    
    36   17   82 1    
    37   18   19 1    
    38   18   22 1    
    39   18   83 1    
    40   19   20 am   BACKBONE|DICT|INTERRES
    41   19   21 2    
    42   20   84 1    
    43   20   85 1    
    44   22   23 am   BACKBONE|DICT|INTERRES
    45   22   86 1    
    46   23   24 2    
    47   23   25 1    
    48   25   26 1    
    49   25   27 1    
    50   25   87 1    
    51   26   88 1    
    52   26   89 1    
    53   26   90 1    
    54   27   28 am   BACKBONE|DICT|INTERRES
    55   27   91 1    
    56   28   29 2    
    57   28   30 1    
    58   30   31 1    
    59   30   32 1    
    60   30   92 1    
    61   31   93 1    
    62   31   94 1    
    63   31   95 1    
    64   32   33 am   BACKBONE|DICT|INTERRES
    65   32   96 1    
    66   33   34 2    
    67   33   35 1    
    68   35   36 1    
    69   35   37 1    
    70   35   97 1    
    71   36   98 1    
    72   36   99 1    
    73   36  100 1    
    74   37   38 am   BACKBONE|DICT|INTERRES
    75   37  101 1    
    76   38   39 2    
    77   38   40 1    
    78   40   41 1    
    79   40   42 1    
    80   40  102 1    
    81   41  103 1    
    82   41  104 1    
    83   41  105 1    
    84   42   43 am   BACKBONE|DICT|INTERRES
    85   42  106 1    
    86   43   44 2    
    87   43   45 1    
    88   45   46 1    
    89   45   49 1    
    90   45  107 1    
    91   46   47 1    
    92   46  108 1    
    93   46  109 1    
    94   47   48 1    
    95   48  110 1    
    96   48  111 1    
    97   49   50 am   BACKBONE|DICT|INTERRES
    98   49  112 1    
    99   50   51 2    
   100   50   52 1    
   101   52   53 1    
   102   52   54 1    
   103   52  113 1    
   104   53  114 1    
   105   53  115 1    
   106   53  116 1    
   107   54   55 am   BACKBONE|DICT|INTERRES
   108   54  117 1    
   109   55   56 2    
   110   55   57 1    
   111   57   58 1    
   112   57   59 1    
   113   57  118 1    
   114   58  119 1    
   115   58  120 1    
   116   58  121 1    
   117   59   60 am   BACKBONE|DICT|INTERRES
   118   59  122 1    
   119   60   61 2    
   120   60   62 1    
   121   62   63 1    
   122   62   64 1    
   123   62  123 1    
   124   63  124 1    
   125   63  125 1    
   126   63  126 1    
   127   64   65 am   BACKBONE|DICT|INTERRES
   128   64  127 1    
   129   65   66 2    
@<TRIPOS>SUBSTRUCTURE
     1 UNK         1 GROUP             0       ****    0 ROOT    
