@<TRIPOS>MOLECULE
3R135
127   129    1
SMALL
USER_CHARGES


@<TRIPOS>ATOM
      1 CA        -81.4815   24.9820  -71.3995 C.3       0 UNK        -0.1998 
      2 C         -81.8395   25.5484  -72.7645 C.2       0 UNK         0.4909 
      3 O         -82.6491   24.9580  -73.4808 O.2       0 UNK        -0.5240 
      4 N         -81.2484   26.6915  -73.1364 N.am      1 UNK        -0.4739 
      5 CA        -81.4496   27.3405  -74.4357 C.3       1 UNK         0.0864 
      6 C6        -80.8284   28.7556  -74.4988 C.3       11 UNK        -0.0881 
      7 S7        -81.5531   29.8620  -73.2393 S.3       11 UNK        -0.2682 
      8 C8        -80.1559   30.9634  -72.8303 C.3       11 UNK         0.0289 
      9 C9        -78.9043   30.2264  -72.3626 C.ar      11 UNK        -0.0687 
     10 C10       -78.9825   29.1963  -71.4191 C.ar      11 UNK        -0.0823 
     11 C11       -77.8341   28.5065  -71.0207 C.ar      11 UNK        -0.0830 
     12 C12       -76.5939   28.8849  -71.5439 C.ar      11 UNK        -0.1021 
     13 C13       -76.4952   29.9238  -72.4748 C.ar      11 UNK        -0.0753 
     14 C14       -77.6571   30.5849  -72.8828 C.ar      11 UNK        -0.0933 
     15 C15       -75.1493   30.3192  -73.0730 C.3       11 UNK         0.0166 
     16 S16       -73.8832   30.6678  -71.8093 S.3       11 UNK        -0.2615 
     17 C17       -72.9207   29.1138  -71.8322 C.3       11 UNK        -0.0865 
     18 CA        -71.6164   29.2119  -72.6712 C.3       10 UNK         0.0862 
     19 C         -70.7190   27.9645  -72.4419 C.2       10 UNK         0.5551 
     20 N         -70.5256   27.0743  -73.4065 N.am      10 UNK        -0.7319 
     21 O         -70.1640   27.8098  -71.3566 O.2       10 UNK        -0.5018 
     22 N         -71.8823   29.4986  -74.0932 N.am      10 UNK        -0.4509 
     23 C         -71.7333   30.7013  -74.6693 C.2       10 UNK         0.4899 
     24 O         -71.3357   31.7047  -74.0737 O.2       10 UNK        -0.4839 
     25 CA        -72.0983   30.8046  -76.1650 C.3       9 UNK         0.0222 
     26 CB        -71.6433   32.1293  -76.8148 C.3       9 UNK        -0.1966 
     27 N         -71.6317   29.6534  -76.9414 N.am      9 UNK        -0.4218 
     28 C         -70.3682   29.2149  -77.0709 C.2       9 UNK         0.5020 
     29 O         -69.3855   29.8250  -76.6459 O.2       9 UNK        -0.5274 
     30 CA        -70.1583   27.8625  -77.7899 C.3       8 UNK         0.0270 
     31 CB        -69.0352   27.0302  -77.1345 C.3       8 UNK        -0.1976 
     32 N         -71.3742   27.0466  -77.9378 N.am      8 UNK        -0.4313 
     33 C         -72.1799   26.6045  -76.9614 C.2       8 UNK         0.5041 
     34 O         -72.0035   26.8322  -75.7613 O.2       8 UNK        -0.5577 
     35 CA        -73.4149   25.8113  -77.4176 C.3       7 UNK         0.0284 
     36 CB        -73.1691   24.3049  -77.2471 C.3       7 UNK        -0.1958 
     37 N         -74.6346   26.2062  -76.7030 N.am      7 UNK        -0.4454 
     38 C         -75.1381   27.4519  -76.6784 C.2       7 UNK         0.5089 
     39 O         -74.6136   28.4037  -77.2620 O.2       7 UNK        -0.5125 
     40 CA        -76.4581   27.7002  -75.9172 C.3       6 UNK         0.0408 
     41 CB        -77.5834   28.0309  -76.9114 C.3       6 UNK        -0.1791 
     42 N         -76.8968   26.6075  -75.0422 N.am      6 UNK        -0.4762 
     43 C         -76.2604   26.2088  -73.9306 C.2       6 UNK         0.5007 
     44 O         -75.2172   26.7195  -73.5246 O.2       6 UNK        -0.5032 
     45 CA        -76.8491   24.9939  -73.1796 C.3       5 UNK         0.0783 
     46 C46       -77.8760   25.4078  -72.0947 C.3       11 UNK        -0.0857 
     47 S47       -77.0625   25.8508  -70.5219 S.3       11 UNK        -0.2512 
     48 C48       -77.9428   27.3670  -70.0133 C.3       11 UNK         0.0225 
     49 N         -77.3863   23.9515  -74.0642 N.am      5 UNK        -0.4615 
     50 C         -76.6843   23.2904  -74.9920 C.2       4 UNK         0.5053 
     51 O         -75.5260   23.5780  -75.2868 O.2       4 UNK        -0.5105 
     52 CA        -77.3452   22.1029  -75.7174 C.3       4 UNK         0.0263 
     53 CB        -76.8802   20.7695  -75.1004 C.3       4 UNK        -0.1981 
     54 N         -78.8093   22.1384  -75.8386 N.am      4 UNK        -0.4224 
     55 C         -79.7529   22.0757  -74.8896 C.2       3 UNK         0.4895 
     56 O         -79.5177   22.0759  -73.6803 O.2       3 UNK        -0.5091 
     57 CA        -81.2063   22.0546  -75.3994 C.3       3 UNK         0.0250 
     58 CB        -82.2185   21.6979  -74.2951 C.3       3 UNK        -0.1996 
     59 N         -81.5619   23.3435  -75.9983 N.am      3 UNK        -0.4254 
     60 C         -81.1674   23.7519  -77.2154 C.2       2 UNK         0.5004 
     61 O         -80.5387   23.0334  -77.9949 O.2       2 UNK        -0.5226 
     62 CA        -81.4863   25.1987  -77.6375 C.3       2 UNK         0.0269 
     63 CB        -82.6648   25.2230  -78.6244 C.3       2 UNK        -0.1926 
     64 N         -81.7768   26.1024  -76.5211 N.am      2 UNK        -0.4687 
     65 C         -80.9049   26.4441  -75.5631 C.2       1 UNK         0.5165 
     66 O         -79.7336   26.0576  -75.5255 O.2       1 UNK        -0.5079 
     67 H67       -81.0221   24.0001  -71.5124 H         1 UNK         0.0900 
     68 H68       -82.3801   24.8696  -70.7937 H         1 UNK         0.0900 
     69 H69       -80.7870   25.6243  -70.8593 H         1 UNK         0.0900 
     70 H70       -80.5973   27.1514  -72.5191 H         1 UNK         0.2959 
     71 H71       -82.5279   27.4480  -74.5750 H         1 UNK         0.1079 
     72 H72       -80.9956   29.2077  -75.4784 H         1 UNK         0.0837 
     73 H73       -79.7467   28.6958  -74.3699 H         1 UNK         0.0837 
     74 H74       -80.4702   31.6516  -72.0449 H         1 UNK         0.0685 
     75 H75       -79.9372   31.5748  -73.7073 H         1 UNK         0.0685 
     76 H76       -79.9440   28.9272  -71.0040 H         1 UNK         0.1434 
     77 H77       -75.7032   28.3568  -71.2353 H         1 UNK         0.1329 
     78 H78       -77.5910   31.3815  -73.6112 H         1 UNK         0.1335 
     79 H79       -75.2555   31.2127  -73.6899 H         1 UNK         0.0680 
     80 H80       -74.8052   29.5314  -73.7434 H         1 UNK         0.0680 
     81 H81       -73.5400   28.2913  -72.1925 H         1 UNK         0.1032 
     82 H82       -72.6855   28.8725  -70.7938 H         1 UNK         0.1032 
     83 H83       -71.0322   30.0349  -72.2552 H         1 UNK         0.0461 
     84 H84       -69.9278   26.2863  -73.2187 H         1 UNK         0.3453 
     85 H85       -71.0343   27.1100  -74.2885 H         1 UNK         0.3453 
     86 H86       -72.1563   28.7058  -74.6623 H         1 UNK         0.2984 
     87 H87       -73.1881   30.7754  -76.2098 H         1 UNK         0.0554 
     88 H88       -71.9357   32.1782  -77.8636 H         1 UNK         0.0847 
     89 H89       -70.5617   32.2573  -76.7613 H         1 UNK         0.0847 
     90 H90       -72.0960   32.9857  -76.3136 H         1 UNK         0.0847 
     91 H91       -72.3692   29.0652  -77.3109 H         1 UNK         0.3141 
     92 H92       -69.8363   28.1121  -78.8019 H         1 UNK         0.0743 
     93 H93       -69.2612   26.7958  -76.0939 H         1 UNK         0.0784 
     94 H94       -68.8774   26.0901  -77.6629 H         1 UNK         0.0784 
     95 H95       -68.0866   27.5684  -77.1467 H         1 UNK         0.0784 
     96 H96       -71.6243   26.8239  -78.8923 H         1 UNK         0.3213 
     97 H97       -73.5898   26.0108  -78.4768 H         1 UNK         0.0855 
     98 H98       -73.0039   24.0431  -76.2010 H         1 UNK         0.0814 
     99 H99       -72.2880   23.9852  -77.8051 H         1 UNK         0.0814 
    100 H100      -74.0130   23.7190  -77.6117 H         1 UNK         0.0814 
    101 H101      -75.0895   25.4863  -76.1528 H         1 UNK         0.3105 
    102 H102      -76.3019   28.5794  -75.2911 H         1 UNK         0.0547 
    103 H103      -77.2884   28.8305  -77.5924 H         1 UNK         0.0837 
    104 H104      -77.8510   27.1658  -77.5191 H         1 UNK         0.0837 
    105 H105      -78.4803   28.3705  -76.3964 H         1 UNK         0.0837 
    106 H106      -77.7764   26.1577  -75.2834 H         1 UNK         0.3020 
    107 H107      -76.0023   24.5194  -72.6779 H         1 UNK         0.1245 
    108 H108      -78.5428   24.5745  -71.8690 H         1 UNK         0.0781 
    109 H109      -78.5177   26.2164  -72.4467 H         1 UNK         0.0781 
    110 H110      -77.5316   27.7055  -69.0615 H         1 UNK         0.0836 
    111 H111      -78.9865   27.1141  -69.8220 H         1 UNK         0.0836 
    112 H112      -78.3150   23.6014  -73.8547 H         1 UNK         0.3022 
    113 H113      -76.9724   22.1351  -76.7424 H         1 UNK         0.0747 
    114 H114      -77.2604   19.9173  -75.6637 H         1 UNK         0.0793 
    115 H115      -75.7916   20.6979  -75.1015 H         1 UNK         0.0793 
    116 H116      -77.2099   20.6631  -74.0663 H         1 UNK         0.0793 
    117 H117      -79.1549   22.2410  -76.7892 H         1 UNK         0.3047 
    118 H118      -81.2756   21.2791  -76.1656 H         1 UNK         0.0822 
    119 H119      -82.0159   20.7051  -73.8916 H         1 UNK         0.0807 
    120 H120      -83.2392   21.6908  -74.6776 H         1 UNK         0.0807 
    121 H121      -82.1781   22.3975  -73.4606 H         1 UNK         0.0807 
    122 H122      -82.0370   24.0030  -75.3925 H         1 UNK         0.2946 
    123 H123      -80.5999   25.5799  -78.1499 H         1 UNK         0.1144 
    124 H124      -82.4669   24.5826  -79.4854 H         1 UNK         0.0793 
    125 H125      -82.8429   26.2284  -79.0067 H         1 UNK         0.0793 
    126 H126      -83.5869   24.8697  -78.1610 H         1 UNK         0.0793 
    127 H127      -82.7245   26.4475  -76.4620 H         1 UNK         0.2896 
@<TRIPOS>BOND
     1    1    2 1    
     2    1   67 1    
     3    1   68 1    
     4    1   69 1    
     5    2    3 2    
     6    2    4 am   BACKBONE|DICT|INTERRES
     7    4    5 1    
     8    4   70 1    
     9    5    6 1    
    10    5   65 1    
    11    5   71 1    
    12    6    7 1    
    13    6   72 1    
    14    6   73 1    
    15    7    8 1    
    16    8    9 1    
    17    8   74 1    
    18    8   75 1    
    19    9   10 ar   
    20    9   14 ar   
    21   10   11 ar   
    22   10   76 1    
    23   11   12 ar   
    24   11   48 1    
    25   12   13 ar   
    26   12   77 1    
    27   13   14 ar   
    28   13   15 1    
    29   14   78 1    
    30   15   16 1    
    31   15   79 1    
    32   15   80 1    
    33   16   17 1    
    34   17   18 1    
    35   17   81 1    
    36   17   82 1    
    37   18   19 1    
    38   18   22 1    
    39   18   83 1    
    40   19   20 am   BACKBONE|DICT|INTERRES
    41   19   21 2    
    42   20   84 1    
    43   20   85 1    
    44   22   23 am   BACKBONE|DICT|INTERRES
    45   22   86 1    
    46   23   24 2    
    47   23   25 1    
    48   25   26 1    
    49   25   27 1    
    50   25   87 1    
    51   26   88 1    
    52   26   89 1    
    53   26   90 1    
    54   27   28 am   BACKBONE|DICT|INTERRES
    55   27   91 1    
    56   28   29 2    
    57   28   30 1    
    58   30   31 1    
    59   30   32 1    
    60   30   92 1    
    61   31   93 1    
    62   31   94 1    
    63   31   95 1    
    64   32   33 am   BACKBONE|DICT|INTERRES
    65   32   96 1    
    66   33   34 2    
    67   33   35 1    
    68   35   36 1    
    69   35   37 1    
    70   35   97 1    
    71   36   98 1    
    72   36   99 1    
    73   36  100 1    
    74   37   38 am   BACKBONE|DICT|INTERRES
    75   37  101 1    
    76   38   39 2    
    77   38   40 1    
    78   40   41 1    
    79   40   42 1    
    80   40  102 1    
    81   41  103 1    
    82   41  104 1    
    83   41  105 1    
    84   42   43 am   BACKBONE|DICT|INTERRES
    85   42  106 1    
    86   43   44 2    
    87   43   45 1    
    88   45   46 1    
    89   45   49 1    
    90   45  107 1    
    91   46   47 1    
    92   46  108 1    
    93   46  109 1    
    94   47   48 1    
    95   48  110 1    
    96   48  111 1    
    97   49   50 am   BACKBONE|DICT|INTERRES
    98   49  112 1    
    99   50   51 2    
   100   50   52 1    
   101   52   53 1    
   102   52   54 1    
   103   52  113 1    
   104   53  114 1    
   105   53  115 1    
   106   53  116 1    
   107   54   55 am   BACKBONE|DICT|INTERRES
   108   54  117 1    
   109   55   56 2    
   110   55   57 1    
   111   57   58 1    
   112   57   59 1    
   113   57  118 1    
   114   58  119 1    
   115   58  120 1    
   116   58  121 1    
   117   59   60 am   BACKBONE|DICT|INTERRES
   118   59  122 1    
   119   60   61 2    
   120   60   62 1    
   121   62   63 1    
   122   62   64 1    
   123   62  123 1    
   124   63  124 1    
   125   63  125 1    
   126   63  126 1    
   127   64   65 am   BACKBONE|DICT|INTERRES
   128   64  127 1    
   129   65   66 2    
@<TRIPOS>SUBSTRUCTURE
     1 UNK         1 GROUP             0       ****    0 ROOT    
