@<TRIPOS>MOLECULE
3R135
127   129    1
SMALL
USER_CHARGES


@<TRIPOS>ATOM
      1 CA        -78.7318   23.2597  -69.7782 C.3       0 UNK        -0.1998 
      2 C         -79.1284   24.6156  -70.3440 C.2       0 UNK         0.4909 
      3 O         -78.3448   25.5589  -70.2521 O.2       0 UNK        -0.5240 
      4 N         -80.3432   24.7031  -70.9049 N.am      1 UNK        -0.4739 
      5 CA        -80.9461   25.8547  -71.5899 C.3       1 UNK         0.0864 
      6 C6        -80.8490   27.1891  -70.8035 C.3       11 UNK        -0.0881 
      7 S7        -82.1145   28.3924  -71.3333 S.3       11 UNK        -0.2682 
      8 C8        -81.3247   29.9787  -70.9082 C.3       11 UNK         0.0289 
      9 C9        -80.0410   30.2421  -71.6875 C.ar      11 UNK        -0.0687 
     10 C10       -80.0547   30.2963  -73.0863 C.ar      11 UNK        -0.0823 
     11 C11       -78.8812   30.5664  -73.7978 C.ar      11 UNK        -0.0830 
     12 C12       -77.6963   30.8092  -73.0985 C.ar      11 UNK        -0.1021 
     13 C13       -77.6607   30.7224  -71.7059 C.ar      11 UNK        -0.0753 
     14 C14       -78.8372   30.4466  -71.0036 C.ar      11 UNK        -0.0933 
     15 C15       -76.3421   30.9046  -70.9730 C.3       11 UNK         0.0166 
     16 S16       -75.5148   29.3004  -70.7406 S.3       11 UNK        -0.2615 
     17 C17       -73.8242   29.8248  -70.2805 C.3       11 UNK        -0.0865 
     18 CA        -72.7216   29.2754  -71.2284 C.3       10 UNK         0.0862 
     19 C         -72.4041   27.7707  -70.9651 C.2       10 UNK         0.5551 
     20 N         -72.4386   26.8844  -71.9541 N.am      10 UNK        -0.7319 
     21 O         -72.0985   27.4018  -69.8335 O.2       10 UNK        -0.5018 
     22 N         -73.0012   29.6119  -72.6322 N.am      10 UNK        -0.4509 
     23 C         -72.0817   29.7141  -73.5964 C.2       10 UNK         0.4899 
     24 O         -70.8645   29.6742  -73.4065 O.2       10 UNK        -0.4839 
     25 CA        -72.6243   29.8815  -75.0258 C.3       9 UNK         0.0222 
     26 CB        -72.3908   31.3129  -75.5341 C.3       9 UNK        -0.1966 
     27 N         -72.0262   28.9229  -75.9604 N.am      9 UNK        -0.4218 
     28 C         -72.0995   27.5903  -75.8415 C.2       9 UNK         0.5020 
     29 O         -72.6767   27.0149  -74.9169 O.2       9 UNK        -0.5274 
     30 CA        -71.4083   26.7587  -76.9244 C.3       8 UNK         0.0270 
     31 CB        -70.0966   26.1542  -76.3886 C.3       8 UNK        -0.1976 
     32 N         -72.3181   25.7034  -77.3705 N.am      8 UNK        -0.4313 
     33 C         -72.2104   25.0421  -78.5309 C.2       8 UNK         0.5041 
     34 O         -71.3131   25.2423  -79.3510 O.2       8 UNK        -0.5577 
     35 CA        -73.2881   23.9949  -78.8482 C.3       7 UNK         0.0284 
     36 CB        -73.1799   22.7754  -77.9161 C.3       7 UNK        -0.1958 
     37 N         -74.6230   24.5846  -78.7536 N.am      7 UNK        -0.4454 
     38 C         -75.2822   25.1406  -79.7811 C.2       7 UNK         0.5089 
     39 O         -74.8686   25.1358  -80.9412 O.2       7 UNK        -0.5125 
     40 CA        -76.6320   25.8239  -79.4787 C.3       6 UNK         0.0408 
     41 CB        -77.7909   24.8476  -79.7339 C.3       6 UNK        -0.1791 
     42 N         -76.7319   26.3470  -78.1144 N.am      6 UNK        -0.4762 
     43 C         -75.9591   27.3212  -77.6105 C.2       6 UNK         0.5007 
     44 O         -75.1769   27.9897  -78.2873 O.2       6 UNK        -0.5032 
     45 CA        -75.9979   27.5361  -76.0843 C.3       5 UNK         0.0783 
     46 C46       -76.6821   28.8515  -75.6557 C.3       11 UNK        -0.0857 
     47 S47       -78.4629   28.9611  -76.0248 S.3       11 UNK        -0.2512 
     48 C48       -78.8853   30.5891  -75.3202 C.3       11 UNK         0.0225 
     49 N         -76.4528   26.3641  -75.3238 N.am      5 UNK        -0.4615 
     50 C         -75.7513   25.2227  -75.2459 C.2       4 UNK         0.5053 
     51 O         -74.7189   25.0137  -75.8820 O.2       4 UNK        -0.5105 
     52 CA        -76.3076   24.1142  -74.3482 C.3       4 UNK         0.0263 
     53 CB        -76.1867   24.4908  -72.8629 C.3       4 UNK        -0.1981 
     54 N         -77.6947   23.8131  -74.6960 N.am      4 UNK        -0.4224 
     55 C         -78.0471   23.0583  -75.7490 C.2       3 UNK         0.4895 
     56 O         -77.2379   22.4906  -76.4832 O.2       3 UNK        -0.5091 
     57 CA        -79.5494   22.9045  -76.0506 C.3       3 UNK         0.0250 
     58 CB        -80.0950   21.6176  -75.4108 C.3       3 UNK        -0.1996 
     59 N         -80.3616   24.0406  -75.6130 N.am      3 UNK        -0.4254 
     60 C         -80.2559   25.2883  -76.0909 C.2       2 UNK         0.5004 
     61 O         -79.4838   25.6129  -76.9923 O.2       2 UNK        -0.5226 
     62 CA        -81.1311   26.3595  -75.4163 C.3       2 UNK         0.0269 
     63 CB        -82.4751   26.4940  -76.1488 C.3       2 UNK        -0.1926 
     64 N         -81.3762   26.1454  -73.9836 N.am      2 UNK        -0.4687 
     65 C         -80.4345   25.9820  -73.0408 C.2       1 UNK         0.5165 
     66 O         -79.2290   25.9159  -73.2905 O.2       1 UNK        -0.5079 
     67 H67       -79.5028   22.5061  -69.9399 H         1 UNK         0.0900 
     68 H68       -77.8132   22.9094  -70.2484 H         1 UNK         0.0900 
     69 H69       -78.5554   23.3393  -68.7054 H         1 UNK         0.0900 
     70 H70       -80.9118   23.8679  -70.9274 H         1 UNK         0.2959 
     71 H71       -82.0042   25.5924  -71.6437 H         1 UNK         0.1079 
     72 H72       -79.8516   27.6214  -70.9014 H         1 UNK         0.0837 
     73 H73       -80.9967   27.0088  -69.7377 H         1 UNK         0.0837 
     74 H74       -82.0294   30.7855  -71.1122 H         1 UNK         0.0685 
     75 H75       -81.1393   29.9993  -69.8333 H         1 UNK         0.0685 
     76 H76       -80.9789   30.1184  -73.6191 H         1 UNK         0.1434 
     77 H77       -76.7885   31.0329  -73.6413 H         1 UNK         0.1329 
     78 H78       -78.8111   30.3860  -69.9242 H         1 UNK         0.1335 
     79 H79       -76.5068   31.3739  -70.0019 H         1 UNK         0.0680 
     80 H80       -75.6947   31.5764  -71.5387 H         1 UNK         0.0680 
     81 H81       -73.7729   30.9143  -70.2722 H         1 UNK         0.1032 
     82 H82       -73.6356   29.5267  -69.2474 H         1 UNK         0.1032 
     83 H83       -71.8024   29.7980  -70.9565 H         1 UNK         0.0461 
     84 H84       -72.6450   27.1559  -72.9093 H         1 UNK         0.3453 
     85 H85       -72.2207   25.9227  -71.7515 H         1 UNK         0.3453 
     86 H86       -73.9803   29.6312  -72.8768 H         1 UNK         0.2984 
     87 H87       -73.7006   29.6988  -75.0174 H         1 UNK         0.0554 
     88 H88       -72.8459   32.0437  -74.8643 H         1 UNK         0.0847 
     89 H89       -72.8308   31.4627  -76.5203 H         1 UNK         0.0847 
     90 H90       -71.3280   31.5499  -75.5992 H         1 UNK         0.0847 
     91 H91       -71.5011   29.3129  -76.7297 H         1 UNK         0.3141 
     92 H92       -71.1828   27.4070  -77.7738 H         1 UNK         0.0743 
     93 H93       -70.2818   25.4671  -75.5620 H         1 UNK         0.0784 
     94 H94       -69.5604   25.6079  -77.1644 H         1 UNK         0.0784 
     95 H95       -69.4280   26.9341  -76.0217 H         1 UNK         0.0784 
     96 H96       -73.0934   25.4988  -76.7391 H         1 UNK         0.3213 
     97 H97       -73.1184   23.6400  -79.8672 H         1 UNK         0.0855 
     98 H98       -73.3158   23.0403  -76.8676 H         1 UNK         0.0814 
     99 H99       -72.2000   22.3053  -78.0065 H         1 UNK         0.0814 
    100 H100      -73.9258   22.0210  -78.1666 H         1 UNK         0.0814 
    101 H101      -75.0047   24.6766  -77.8176 H         1 UNK         0.3105 
    102 H102      -76.7367   26.6655  -80.1664 H         1 UNK         0.0547 
    103 H103      -77.7436   24.4374  -80.7436 H         1 UNK         0.0837 
    104 H104      -77.7710   24.0080  -79.0377 H         1 UNK         0.0837 
    105 H105      -78.7561   25.3437  -79.6327 H         1 UNK         0.0837 
    106 H106      -77.4159   25.9095  -77.5055 H         1 UNK         0.3020 
    107 H107      -74.9526   27.6643  -75.8095 H         1 UNK         0.1245 
    108 H108      -76.1795   29.7057  -76.1139 H         1 UNK         0.0781 
    109 H109      -76.5424   28.9582  -74.5812 H         1 UNK         0.0781 
    110 H110      -79.8710   30.8827  -75.6839 H         1 UNK         0.0836 
    111 H111      -78.1892   31.3424  -75.6923 H         1 UNK         0.0836 
    112 H112      -77.3156   26.4596  -74.8036 H         1 UNK         0.3022 
    113 H113      -75.7028   23.2186  -74.5087 H         1 UNK         0.0747 
    114 H114      -76.5426   23.6856  -72.2214 H         1 UNK         0.0793 
    115 H115      -75.1466   24.6828  -72.5956 H         1 UNK         0.0793 
    116 H116      -76.7518   25.3901  -72.6166 H         1 UNK         0.0793 
    117 H117      -78.4098   24.3133  -74.1769 H         1 UNK         0.3047 
    118 H118      -79.6552   22.8212  -77.1345 H         1 UNK         0.0822 
    119 H119      -81.1353   21.4459  -75.6876 H         1 UNK         0.0807 
    120 H120      -80.0364   21.6510  -74.3220 H         1 UNK         0.0807 
    121 H121      -79.5266   20.7468  -75.7408 H         1 UNK         0.0807 
    122 H122      -81.0245   23.8716  -74.8708 H         1 UNK         0.2946 
    123 H123      -80.6054   27.3082  -75.5065 H         1 UNK         0.1144 
    124 H124      -83.0588   27.3279  -75.7584 H         1 UNK         0.0793 
    125 H125      -83.0772   25.5890  -76.0593 H         1 UNK         0.0793 
    126 H126      -82.3216   26.6802  -77.2129 H         1 UNK         0.0793 
    127 H127      -82.3412   26.1990  -73.6900 H         1 UNK         0.2896 
@<TRIPOS>BOND
     1    1    2 1    
     2    1   67 1    
     3    1   68 1    
     4    1   69 1    
     5    2    3 2    
     6    2    4 am   BACKBONE|DICT|INTERRES
     7    4    5 1    
     8    4   70 1    
     9    5    6 1    
    10    5   65 1    
    11    5   71 1    
    12    6    7 1    
    13    6   72 1    
    14    6   73 1    
    15    7    8 1    
    16    8    9 1    
    17    8   74 1    
    18    8   75 1    
    19    9   10 ar   
    20    9   14 ar   
    21   10   11 ar   
    22   10   76 1    
    23   11   12 ar   
    24   11   48 1    
    25   12   13 ar   
    26   12   77 1    
    27   13   14 ar   
    28   13   15 1    
    29   14   78 1    
    30   15   16 1    
    31   15   79 1    
    32   15   80 1    
    33   16   17 1    
    34   17   18 1    
    35   17   81 1    
    36   17   82 1    
    37   18   19 1    
    38   18   22 1    
    39   18   83 1    
    40   19   20 am   BACKBONE|DICT|INTERRES
    41   19   21 2    
    42   20   84 1    
    43   20   85 1    
    44   22   23 am   BACKBONE|DICT|INTERRES
    45   22   86 1    
    46   23   24 2    
    47   23   25 1    
    48   25   26 1    
    49   25   27 1    
    50   25   87 1    
    51   26   88 1    
    52   26   89 1    
    53   26   90 1    
    54   27   28 am   BACKBONE|DICT|INTERRES
    55   27   91 1    
    56   28   29 2    
    57   28   30 1    
    58   30   31 1    
    59   30   32 1    
    60   30   92 1    
    61   31   93 1    
    62   31   94 1    
    63   31   95 1    
    64   32   33 am   BACKBONE|DICT|INTERRES
    65   32   96 1    
    66   33   34 2    
    67   33   35 1    
    68   35   36 1    
    69   35   37 1    
    70   35   97 1    
    71   36   98 1    
    72   36   99 1    
    73   36  100 1    
    74   37   38 am   BACKBONE|DICT|INTERRES
    75   37  101 1    
    76   38   39 2    
    77   38   40 1    
    78   40   41 1    
    79   40   42 1    
    80   40  102 1    
    81   41  103 1    
    82   41  104 1    
    83   41  105 1    
    84   42   43 am   BACKBONE|DICT|INTERRES
    85   42  106 1    
    86   43   44 2    
    87   43   45 1    
    88   45   46 1    
    89   45   49 1    
    90   45  107 1    
    91   46   47 1    
    92   46  108 1    
    93   46  109 1    
    94   47   48 1    
    95   48  110 1    
    96   48  111 1    
    97   49   50 am   BACKBONE|DICT|INTERRES
    98   49  112 1    
    99   50   51 2    
   100   50   52 1    
   101   52   53 1    
   102   52   54 1    
   103   52  113 1    
   104   53  114 1    
   105   53  115 1    
   106   53  116 1    
   107   54   55 am   BACKBONE|DICT|INTERRES
   108   54  117 1    
   109   55   56 2    
   110   55   57 1    
   111   57   58 1    
   112   57   59 1    
   113   57  118 1    
   114   58  119 1    
   115   58  120 1    
   116   58  121 1    
   117   59   60 am   BACKBONE|DICT|INTERRES
   118   59  122 1    
   119   60   61 2    
   120   60   62 1    
   121   62   63 1    
   122   62   64 1    
   123   62  123 1    
   124   63  124 1    
   125   63  125 1    
   126   63  126 1    
   127   64   65 am   BACKBONE|DICT|INTERRES
   128   64  127 1    
   129   65   66 2    
@<TRIPOS>SUBSTRUCTURE
     1 UNK         1 GROUP             0       ****    0 ROOT    
