@<TRIPOS>MOLECULE
3R135
127   129    1
SMALL
USER_CHARGES


@<TRIPOS>ATOM
      1 CA        -84.4958   23.8376  -70.2870 C.3       0 UNK        -0.1998 
      2 C         -83.8931   24.9073  -71.1855 C.2       0 UNK         0.4909 
      3 O         -84.6291   25.7126  -71.7577 O.2       0 UNK        -0.5240 
      4 N         -82.5601   24.9285  -71.3054 N.am      1 UNK        -0.4739 
      5 CA        -81.8131   25.8536  -72.1641 C.3       1 UNK         0.0864 
      6 C6        -80.3030   25.8644  -71.8271 C.3       11 UNK        -0.0881 
      7 S7        -79.9305   26.3009  -70.0940 S.3       11 UNK        -0.2682 
      8 C8        -79.7980   28.1192  -70.1513 C.3       11 UNK         0.0289 
      9 C9        -78.7279   28.6064  -71.1196 C.ar      11 UNK        -0.0687 
     10 C10       -79.0971   29.2845  -72.2850 C.ar      11 UNK        -0.0823 
     11 C11       -78.1284   29.7253  -73.1911 C.ar      11 UNK        -0.0830 
     12 C12       -76.7780   29.4905  -72.9197 C.ar      11 UNK        -0.1021 
     13 C13       -76.3949   28.8225  -71.7528 C.ar      11 UNK        -0.0753 
     14 C14       -77.3729   28.3859  -70.8532 C.ar      11 UNK        -0.0933 
     15 C15       -74.9223   28.5757  -71.4735 C.3       11 UNK         0.0166 
     16 S16       -74.1217   30.0910  -70.8640 S.3       11 UNK        -0.2615 
     17 C17       -72.3674   29.5922  -70.8399 C.3       11 UNK        -0.0865 
     18 CA        -71.5817   30.1403  -72.0598 C.3       10 UNK         0.0862 
     19 C         -70.0619   29.8745  -71.8927 C.2       10 UNK         0.5551 
     20 N         -69.2768   30.9006  -71.5955 N.am      10 UNK        -0.7319 
     21 O         -69.6028   28.7377  -71.9804 O.2       10 UNK        -0.5018 
     22 N         -72.0955   29.5784  -73.3148 N.am      10 UNK        -0.4509 
     23 C         -71.7942   30.0047  -74.5473 C.2       10 UNK         0.4899 
     24 O         -71.1004   30.9955  -74.7818 O.2       10 UNK        -0.4839 
     25 CA        -72.3907   29.1790  -75.7065 C.3       9 UNK         0.0222 
     26 CB        -71.7082   29.4508  -77.0637 C.3       9 UNK        -0.1966 
     27 N         -72.4328   27.7401  -75.4128 N.am      9 UNK        -0.4218 
     28 C         -71.3890   26.9324  -75.1640 C.2       9 UNK         0.5020 
     29 O         -70.2096   27.2799  -75.2268 O.2       9 UNK        -0.5274 
     30 CA        -71.7197   25.4870  -74.7755 C.3       8 UNK         0.0270 
     31 CB        -72.2645   25.4143  -73.3368 C.3       8 UNK        -0.1976 
     32 N         -72.6894   24.9078  -75.7079 N.am      8 UNK        -0.4313 
     33 C         -72.4217   23.8996  -76.5474 C.2       8 UNK         0.5041 
     34 O         -71.3354   23.3206  -76.6038 O.2       8 UNK        -0.5577 
     35 CA        -73.5509   23.4396  -77.4833 C.3       7 UNK         0.0284 
     36 CB        -74.3990   22.3474  -76.8112 C.3       7 UNK        -0.1958 
     37 N         -74.4223   24.5205  -77.9518 N.am      7 UNK        -0.4454 
     38 C         -74.0543   25.4538  -78.8428 C.2       7 UNK         0.5089 
     39 O         -72.9108   25.5661  -79.2845 O.2       7 UNK        -0.5125 
     40 CA        -75.1476   26.4061  -79.3493 C.3       6 UNK         0.0408 
     41 CB        -76.0367   25.6986  -80.3850 C.3       6 UNK        -0.1791 
     42 N         -75.9810   26.8902  -78.2514 N.am      6 UNK        -0.4762 
     43 C         -75.8690   28.0972  -77.6778 C.2       6 UNK         0.5007 
     44 O         -75.0902   28.9710  -78.0581 O.2       6 UNK        -0.5032 
     45 CA        -76.7764   28.3759  -76.4607 C.3       5 UNK         0.0783 
     46 C46       -78.0552   29.1257  -76.9155 C.3       11 UNK        -0.0857 
     47 S47       -79.3405   29.3278  -75.6346 S.3       11 UNK        -0.2512 
     48 C48       -78.5549   30.4638  -74.4507 C.3       11 UNK         0.0225 
     49 N         -77.0728   27.1609  -75.6970 N.am      5 UNK        -0.4615 
     50 C         -76.1622   26.4020  -75.0733 C.2       4 UNK         0.5053 
     51 O         -74.9596   26.6620  -75.0456 O.2       4 UNK        -0.5105 
     52 CA        -76.6552   25.1036  -74.4170 C.3       4 UNK         0.0263 
     53 CB        -76.8439   25.3141  -72.9085 C.3       4 UNK        -0.1981 
     54 N         -77.8862   24.5677  -75.0117 N.am      4 UNK        -0.4224 
     55 C         -78.0095   24.1656  -76.2869 C.2       3 UNK         0.4895 
     56 O         -77.1030   24.2348  -77.1183 O.2       3 UNK        -0.5091 
     57 CA        -79.3895   23.6461  -76.7141 C.3       3 UNK         0.0250 
     58 CB        -79.6004   22.2007  -76.2368 C.3       3 UNK        -0.1996 
     59 N         -80.4807   24.4932  -76.2268 N.am      3 UNK        -0.4254 
     60 C         -80.7283   25.7397  -76.6484 C.2       2 UNK         0.5004 
     61 O         -80.0604   26.3075  -77.5118 O.2       2 UNK        -0.5226 
     62 CA        -81.9040   26.4888  -75.9942 C.3       2 UNK         0.0269 
     63 CB        -83.2595   25.9741  -76.5185 C.3       2 UNK        -0.1926 
     64 N         -81.8619   26.5213  -74.5226 N.am      2 UNK        -0.4687 
     65 C         -81.9988   25.5061  -73.6561 C.2       1 UNK         0.5165 
     66 O         -82.1860   24.3337  -73.9943 O.2       1 UNK        -0.5079 
     67 H67       -83.7305   23.2072  -69.8342 H         1 UNK         0.0900 
     68 H68       -85.1649   23.1982  -70.8623 H         1 UNK         0.0900 
     69 H69       -85.0711   24.3007  -69.4857 H         1 UNK         0.0900 
     70 H70       -82.0034   24.2414  -70.8179 H         1 UNK         0.2959 
     71 H71       -82.2130   26.8568  -71.9987 H         1 UNK         0.1079 
     72 H72       -79.8692   24.8794  -72.0110 H         1 UNK         0.0837 
     73 H73       -79.7739   26.5485  -72.4902 H         1 UNK         0.0837 
     74 H74       -80.7733   28.5356  -70.4078 H         1 UNK         0.0685 
     75 H75       -79.5654   28.4854  -69.1505 H         1 UNK         0.0685 
     76 H76       -80.1422   29.4660  -72.4953 H         1 UNK         0.1434 
     77 H77       -76.0181   29.8364  -73.6061 H         1 UNK         0.1329 
     78 H78       -77.0837   27.8657  -69.9503 H         1 UNK         0.1335 
     79 H79       -74.7967   27.7778  -70.7398 H         1 UNK         0.0680 
     80 H80       -74.4363   28.2357  -72.3886 H         1 UNK         0.0680 
     81 H81       -72.2863   28.5050  -70.7769 H         1 UNK         0.1032 
     82 H82       -71.9375   29.9766  -69.9127 H         1 UNK         0.1032 
     83 H83       -71.7377   31.2206  -72.1016 H         1 UNK         0.0461 
     84 H84       -68.2898   30.7418  -71.4657 H         1 UNK         0.3453 
     85 H85       -69.6486   31.8345  -71.5152 H         1 UNK         0.3453 
     86 H86       -72.6474   28.7407  -73.2277 H         1 UNK         0.2984 
     87 H87       -73.4305   29.4962  -75.7954 H         1 UNK         0.0554 
     88 H88       -72.1621   28.8585  -77.8586 H         1 UNK         0.0847 
     89 H89       -70.6430   29.2201  -77.0376 H         1 UNK         0.0847 
     90 H90       -71.8071   30.4992  -77.3468 H         1 UNK         0.0847 
     91 H91       -73.3695   27.3501  -75.3069 H         1 UNK         0.3141 
     92 H92       -70.7830   24.9260  -74.7984 H         1 UNK         0.0743 
     93 H93       -73.2086   25.9461  -73.2216 H         1 UNK         0.0784 
     94 H94       -72.4278   24.3806  -73.0317 H         1 UNK         0.0784 
     95 H95       -71.5565   25.8516  -72.6311 H         1 UNK         0.0784 
     96 H96       -73.6031   25.3458  -75.7414 H         1 UNK         0.3213 
     97 H97       -73.0781   22.9959  -78.3626 H         1 UNK         0.0855 
     98 H98       -74.9075   22.7171  -75.9215 H         1 UNK         0.0814 
     99 H99       -73.7773   21.5053  -76.5040 H         1 UNK         0.0814 
    100 H100      -75.1569   21.9586  -77.4915 H         1 UNK         0.0814 
    101 H101      -75.3981   24.4713  -77.6630 H         1 UNK         0.3105 
    102 H102      -74.6564   27.2438  -79.8490 H         1 UNK         0.0547 
    103 H103      -75.4413   25.3195  -81.2167 H         1 UNK         0.0837 
    104 H104      -76.5715   24.8515  -79.9529 H         1 UNK         0.0837 
    105 H105      -76.7765   26.3819  -80.8020 H         1 UNK         0.0837 
    106 H106      -76.6364   26.2272  -77.8540 H         1 UNK         0.3020 
    107 H107      -76.2106   29.0363  -75.8025 H         1 UNK         0.1245 
    108 H108      -77.7972   30.1131  -77.3034 H         1 UNK         0.0781 
    109 H109      -78.5274   28.5955  -77.7453 H         1 UNK         0.0781 
    110 H110      -77.7103   30.9761  -74.9138 H         1 UNK         0.0836 
    111 H111      -79.2707   31.2426  -74.1837 H         1 UNK         0.0836 
    112 H112      -78.0420   26.8797  -75.6788 H         1 UNK         0.3022 
    113 H113      -75.8739   24.3548  -74.5544 H         1 UNK         0.0747 
    114 H114      -77.2026   24.4111  -72.4145 H         1 UNK         0.0793 
    115 H115      -75.8993   25.5867  -72.4355 H         1 UNK         0.0793 
    116 H116      -77.5455   26.1202  -72.7007 H         1 UNK         0.0793 
    117 H117      -78.6864   24.4770  -74.4045 H         1 UNK         0.3047 
    118 H118      -79.4193   23.6518  -77.8060 H         1 UNK         0.0822 
    119 H119      -80.5376   21.7927  -76.6159 H         1 UNK         0.0807 
    120 H120      -79.6214   22.1295  -75.1486 H         1 UNK         0.0807 
    121 H121      -78.7988   21.5514  -76.5920 H         1 UNK         0.0807 
    122 H122      -81.0837   24.1205  -75.4970 H         1 UNK         0.2946 
    123 H123      -81.8139   27.5292  -76.3127 H         1 UNK         0.1144 
    124 H124      -83.3085   26.0511  -77.6055 H         1 UNK         0.0793 
    125 H125      -84.0867   26.5585  -76.1156 H         1 UNK         0.0793 
    126 H126      -83.4327   24.9287  -76.2621 H         1 UNK         0.0793 
    127 H127      -81.6702   27.4369  -74.1392 H         1 UNK         0.2896 
@<TRIPOS>BOND
     1    1    2 1    
     2    1   67 1    
     3    1   68 1    
     4    1   69 1    
     5    2    3 2    
     6    2    4 am   BACKBONE|DICT|INTERRES
     7    4    5 1    
     8    4   70 1    
     9    5    6 1    
    10    5   65 1    
    11    5   71 1    
    12    6    7 1    
    13    6   72 1    
    14    6   73 1    
    15    7    8 1    
    16    8    9 1    
    17    8   74 1    
    18    8   75 1    
    19    9   10 ar   
    20    9   14 ar   
    21   10   11 ar   
    22   10   76 1    
    23   11   12 ar   
    24   11   48 1    
    25   12   13 ar   
    26   12   77 1    
    27   13   14 ar   
    28   13   15 1    
    29   14   78 1    
    30   15   16 1    
    31   15   79 1    
    32   15   80 1    
    33   16   17 1    
    34   17   18 1    
    35   17   81 1    
    36   17   82 1    
    37   18   19 1    
    38   18   22 1    
    39   18   83 1    
    40   19   20 am   BACKBONE|DICT|INTERRES
    41   19   21 2    
    42   20   84 1    
    43   20   85 1    
    44   22   23 am   BACKBONE|DICT|INTERRES
    45   22   86 1    
    46   23   24 2    
    47   23   25 1    
    48   25   26 1    
    49   25   27 1    
    50   25   87 1    
    51   26   88 1    
    52   26   89 1    
    53   26   90 1    
    54   27   28 am   BACKBONE|DICT|INTERRES
    55   27   91 1    
    56   28   29 2    
    57   28   30 1    
    58   30   31 1    
    59   30   32 1    
    60   30   92 1    
    61   31   93 1    
    62   31   94 1    
    63   31   95 1    
    64   32   33 am   BACKBONE|DICT|INTERRES
    65   32   96 1    
    66   33   34 2    
    67   33   35 1    
    68   35   36 1    
    69   35   37 1    
    70   35   97 1    
    71   36   98 1    
    72   36   99 1    
    73   36  100 1    
    74   37   38 am   BACKBONE|DICT|INTERRES
    75   37  101 1    
    76   38   39 2    
    77   38   40 1    
    78   40   41 1    
    79   40   42 1    
    80   40  102 1    
    81   41  103 1    
    82   41  104 1    
    83   41  105 1    
    84   42   43 am   BACKBONE|DICT|INTERRES
    85   42  106 1    
    86   43   44 2    
    87   43   45 1    
    88   45   46 1    
    89   45   49 1    
    90   45  107 1    
    91   46   47 1    
    92   46  108 1    
    93   46  109 1    
    94   47   48 1    
    95   48  110 1    
    96   48  111 1    
    97   49   50 am   BACKBONE|DICT|INTERRES
    98   49  112 1    
    99   50   51 2    
   100   50   52 1    
   101   52   53 1    
   102   52   54 1    
   103   52  113 1    
   104   53  114 1    
   105   53  115 1    
   106   53  116 1    
   107   54   55 am   BACKBONE|DICT|INTERRES
   108   54  117 1    
   109   55   56 2    
   110   55   57 1    
   111   57   58 1    
   112   57   59 1    
   113   57  118 1    
   114   58  119 1    
   115   58  120 1    
   116   58  121 1    
   117   59   60 am   BACKBONE|DICT|INTERRES
   118   59  122 1    
   119   60   61 2    
   120   60   62 1    
   121   62   63 1    
   122   62   64 1    
   123   62  123 1    
   124   63  124 1    
   125   63  125 1    
   126   63  126 1    
   127   64   65 am   BACKBONE|DICT|INTERRES
   128   64  127 1    
   129   65   66 2    
@<TRIPOS>SUBSTRUCTURE
     1 UNK         1 GROUP             0       ****    0 ROOT    
