@<TRIPOS>MOLECULE
3R135
127   129    1
SMALL
USER_CHARGES


@<TRIPOS>ATOM
      1 CA        -83.9035   24.3154  -74.3321 C.3       0 UNK        -0.1998 
      2 C         -82.9762   25.5138  -74.4588 C.2       0 UNK         0.4909 
      3 O         -82.6888   25.9494  -75.5737 O.2       0 UNK        -0.5240 
      4 N         -82.4986   26.0514  -73.3285 N.am      1 UNK        -0.4739 
      5 CA        -81.6001   27.2099  -73.2779 C.3       1 UNK         0.0864 
      6 C6        -81.4364   27.7433  -71.8347 C.3       11 UNK        -0.0881 
      7 S7        -81.0898   29.5333  -71.8153 S.3       11 UNK        -0.2682 
      8 C8        -79.7133   29.6393  -70.6312 C.3       11 UNK         0.0289 
      9 C9        -78.3818   29.2297  -71.2444 C.ar      11 UNK        -0.0687 
     10 C10       -77.7818   28.0151  -70.8981 C.ar      11 UNK        -0.0823 
     11 C11       -76.5218   27.6710  -71.4003 C.ar      11 UNK        -0.0830 
     12 C12       -75.8620   28.5634  -72.2552 C.ar      11 UNK        -0.1021 
     13 C13       -76.4592   29.7723  -72.6227 C.ar      11 UNK        -0.0753 
     14 C14       -77.7219   30.0963  -72.1195 C.ar      11 UNK        -0.0933 
     15 C15       -75.7374   30.7322  -73.5577 C.3       11 UNK         0.0166 
     16 S16       -75.2802   32.2862  -72.7265 S.3       11 UNK        -0.2615 
     17 C17       -74.0163   31.7234  -71.5330 C.3       11 UNK        -0.0865 
     18 CA        -72.6031   32.2850  -71.8600 C.3       10 UNK         0.0862 
     19 C         -71.5869   32.0931  -70.6904 C.2       10 UNK         0.5551 
     20 N         -70.2936   31.9575  -70.9582 N.am      10 UNK        -0.7319 
     21 O         -71.9657   32.1030  -69.5215 O.2       10 UNK        -0.5018 
     22 N         -72.1136   31.8657  -73.1881 N.am      10 UNK        -0.4509 
     23 C         -71.7799   30.6208  -73.5540 C.2       10 UNK         0.4899 
     24 O         -71.8274   29.6412  -72.8068 O.2       10 UNK        -0.4839 
     25 CA        -71.2580   30.4732  -74.9953 C.3       9 UNK         0.0222 
     26 CB        -69.8273   31.0287  -75.1107 C.3       9 UNK        -0.1966 
     27 N         -71.2573   29.0826  -75.4546 N.am      9 UNK        -0.4218 
     28 C         -72.3502   28.3701  -75.7532 C.2       9 UNK         0.5020 
     29 O         -73.4997   28.8167  -75.7114 O.2       9 UNK        -0.5274 
     30 CA        -72.1034   26.9028  -76.1490 C.3       8 UNK         0.0270 
     31 CB        -71.9222   26.0300  -74.8977 C.3       8 UNK        -0.1976 
     32 N         -73.2040   26.3655  -76.9499 N.am      8 UNK        -0.4313 
     33 C         -73.4691   26.7221  -78.2140 C.2       8 UNK         0.5041 
     34 O         -72.7327   27.4524  -78.8815 O.2       8 UNK        -0.5577 
     35 CA        -74.7827   26.1983  -78.8279 C.3       7 UNK         0.0284 
     36 CB        -74.7370   26.1100  -80.3688 C.3       7 UNK        -0.1958 
     37 N         -75.2544   24.9403  -78.2371 N.am      7 UNK        -0.4454 
     38 C         -74.6659   23.7362  -78.2947 C.2       7 UNK         0.5089 
     39 O         -73.6018   23.5168  -78.8758 O.2       7 UNK        -0.5125 
     40 CA        -75.4058   22.5859  -77.5832 C.3       6 UNK         0.0408 
     41 CB        -74.5256   21.3349  -77.3762 C.3       6 UNK        -0.1791 
     42 N         -76.0408   22.9969  -76.3252 N.am      6 UNK        -0.4762 
     43 C         -75.4381   23.4527  -75.2137 C.2       6 UNK         0.5007 
     44 O         -74.2186   23.5886  -75.1211 O.2       6 UNK        -0.5032 
     45 CA        -76.3311   23.8506  -74.0106 C.3       5 UNK         0.0783 
     46 C46       -76.1114   25.3333  -73.6084 C.3       11 UNK        -0.0857 
     47 S47       -74.8871   25.5346  -72.2739 S.3       11 UNK        -0.2512 
     48 C48       -75.8860   26.3457  -70.9771 C.3       11 UNK         0.0225 
     49 N         -77.7553   23.5889  -74.2368 N.am      5 UNK        -0.4615 
     50 C         -78.3506   22.3906  -74.2434 C.2       4 UNK         0.5053 
     51 O         -77.7817   21.3385  -73.9546 O.2       4 UNK        -0.5105 
     52 CA        -79.8168   22.3651  -74.7100 C.3       4 UNK         0.0263 
     53 CB        -80.7724   22.4797  -73.5120 C.3       4 UNK        -0.1981 
     54 N         -80.1042   23.4232  -75.6886 N.am      4 UNK        -0.4224 
     55 C         -79.6241   23.4370  -76.9423 C.2       3 UNK         0.4895 
     56 O         -78.9681   22.5173  -77.4305 O.2       3 UNK        -0.5091 
     57 CA        -79.8535   24.7123  -77.7699 C.3       3 UNK         0.0250 
     58 CB        -81.2317   24.6868  -78.4488 C.3       3 UNK        -0.1996 
     59 N         -79.7029   25.9313  -76.9686 N.am      3 UNK        -0.4254 
     60 C         -78.5250   26.3753  -76.5008 C.2       2 UNK         0.5004 
     61 O         -77.4517   25.8250  -76.7416 O.2       2 UNK        -0.5226 
     62 CA        -78.5332   27.6120  -75.5819 C.3       2 UNK         0.0269 
     63 CB        -78.2560   28.8869  -76.3920 C.3       2 UNK        -0.1926 
     64 N         -79.7719   27.7776  -74.8164 N.am      2 UNK        -0.4687 
     65 C         -80.2416   26.8878  -73.9317 C.2       1 UNK         0.5165 
     66 O         -79.6681   25.8308  -73.6567 O.2       1 UNK        -0.5079 
     67 H67       -84.9233   24.6052  -74.5833 H         1 UNK         0.0900 
     68 H68       -83.5967   23.5276  -75.0195 H         1 UNK         0.0900 
     69 H69       -83.9032   23.9056  -73.3223 H         1 UNK         0.0900 
     70 H70       -82.7390   25.6382  -72.4389 H         1 UNK         0.2959 
     71 H71       -82.0880   27.9840  -73.8753 H         1 UNK         0.1079 
     72 H72       -80.6731   27.1877  -71.2861 H         1 UNK         0.0837 
     73 H73       -82.3620   27.6050  -71.2736 H         1 UNK         0.0837 
     74 H74       -79.9413   29.0382  -69.7495 H         1 UNK         0.0685 
     75 H75       -79.6377   30.6696  -70.2802 H         1 UNK         0.0685 
     76 H76       -78.2896   27.3439  -70.2189 H         1 UNK         0.1434 
     77 H77       -74.8798   28.3204  -72.6381 H         1 UNK         0.1329 
     78 H78       -78.1806   31.0375  -72.3903 H         1 UNK         0.1335 
     79 H79       -74.8396   30.2734  -73.9723 H         1 UNK         0.0680 
     80 H80       -76.3848   30.9610  -74.4049 H         1 UNK         0.0680 
     81 H81       -74.3461   32.0582  -70.5480 H         1 UNK         0.1032 
     82 H82       -73.9922   30.6344  -71.4814 H         1 UNK         0.1032 
     83 H83       -72.7072   33.3684  -71.9315 H         1 UNK         0.0461 
     84 H84       -69.6404   31.8457  -70.1988 H         1 UNK         0.3453 
     85 H85       -69.9676   31.9574  -71.9108 H         1 UNK         0.3453 
     86 H86       -72.0225   32.6088  -73.8658 H         1 UNK         0.2984 
     87 H87       -71.9113   31.0483  -75.6552 H         1 UNK         0.0554 
     88 H88       -69.7869   32.0834  -74.8360 H         1 UNK         0.0847 
     89 H89       -69.4530   30.9526  -76.1319 H         1 UNK         0.0847 
     90 H90       -69.1333   30.4962  -74.4588 H         1 UNK         0.0847 
     91 H91       -70.3608   28.6189  -75.4754 H         1 UNK         0.3141 
     92 H92       -71.1907   26.8514  -76.7467 H         1 UNK         0.0743 
     93 H93       -71.0863   26.3772  -74.2893 H         1 UNK         0.0784 
     94 H94       -71.7222   24.9912  -75.1620 H         1 UNK         0.0784 
     95 H95       -72.8113   26.0486  -74.2680 H         1 UNK         0.0784 
     96 H96       -73.8549   25.7561  -76.4752 H         1 UNK         0.3213 
     97 H97       -75.5385   26.9419  -78.5700 H         1 UNK         0.0855 
     98 H98       -73.9485   25.4407  -80.7138 H         1 UNK         0.0814 
     99 H99       -74.5460   27.0886  -80.8108 H         1 UNK         0.0814 
    100 H100      -75.6836   25.7532  -80.7744 H         1 UNK         0.0814 
    101 H101      -76.1104   25.0310  -77.6892 H         1 UNK         0.3105 
    102 H102      -76.2219   22.3013  -78.2486 H         1 UNK         0.0547 
    103 H103      -75.0808   20.5361  -76.8847 H         1 UNK         0.0837 
    104 H104      -73.6444   21.5532  -76.7723 H         1 UNK         0.0837 
    105 H105      -74.1738   20.9431  -78.3312 H         1 UNK         0.0837 
    106 H106      -77.0521   22.9483  -76.3249 H         1 UNK         0.3020 
    107 H107      -76.0245   23.2089  -73.1814 H         1 UNK         0.1245 
    108 H108      -77.0486   25.7709  -73.2648 H         1 UNK         0.0781 
    109 H109      -75.8066   25.9500  -74.4565 H         1 UNK         0.0781 
    110 H110      -75.2498   26.5273  -70.1101 H         1 UNK         0.0836 
    111 H111      -76.6558   25.6429  -70.6540 H         1 UNK         0.0836 
    112 H112      -78.3349   24.4030  -74.4058 H         1 UNK         0.3022 
    113 H113      -79.9904   21.3997  -75.1905 H         1 UNK         0.0747 
    114 H114      -81.8070   22.3310  -73.8175 H         1 UNK         0.0793 
    115 H115      -80.5494   21.7188  -72.7627 H         1 UNK         0.0793 
    116 H116      -80.6978   23.4499  -73.0203 H         1 UNK         0.0793 
    117 H117      -80.5937   24.2405  -75.3511 H         1 UNK         0.3047 
    118 H118      -79.0957   24.7343  -78.5565 H         1 UNK         0.0822 
    119 H119      -81.3929   25.5782  -79.0552 H         1 UNK         0.0807 
    120 H120      -82.0439   24.6212  -77.7251 H         1 UNK         0.0807 
    121 H121      -81.3202   23.8248  -79.1114 H         1 UNK         0.0807 
    122 H122      -80.5507   26.4164  -76.7044 H         1 UNK         0.2946 
    123 H123      -77.7211   27.4895  -74.8628 H         1 UNK         0.1144 
    124 H124      -78.1821   29.7598  -75.7433 H         1 UNK         0.0793 
    125 H125      -79.0385   29.0779  -77.1274 H         1 UNK         0.0793 
    126 H126      -77.3110   28.8066  -76.9318 H         1 UNK         0.0793 
    127 H127      -80.2973   28.6238  -74.9842 H         1 UNK         0.2896 
@<TRIPOS>BOND
     1    1    2 1    
     2    1   67 1    
     3    1   68 1    
     4    1   69 1    
     5    2    3 2    
     6    2    4 am   BACKBONE|DICT|INTERRES
     7    4    5 1    
     8    4   70 1    
     9    5    6 1    
    10    5   65 1    
    11    5   71 1    
    12    6    7 1    
    13    6   72 1    
    14    6   73 1    
    15    7    8 1    
    16    8    9 1    
    17    8   74 1    
    18    8   75 1    
    19    9   10 ar   
    20    9   14 ar   
    21   10   11 ar   
    22   10   76 1    
    23   11   12 ar   
    24   11   48 1    
    25   12   13 ar   
    26   12   77 1    
    27   13   14 ar   
    28   13   15 1    
    29   14   78 1    
    30   15   16 1    
    31   15   79 1    
    32   15   80 1    
    33   16   17 1    
    34   17   18 1    
    35   17   81 1    
    36   17   82 1    
    37   18   19 1    
    38   18   22 1    
    39   18   83 1    
    40   19   20 am   BACKBONE|DICT|INTERRES
    41   19   21 2    
    42   20   84 1    
    43   20   85 1    
    44   22   23 am   BACKBONE|DICT|INTERRES
    45   22   86 1    
    46   23   24 2    
    47   23   25 1    
    48   25   26 1    
    49   25   27 1    
    50   25   87 1    
    51   26   88 1    
    52   26   89 1    
    53   26   90 1    
    54   27   28 am   BACKBONE|DICT|INTERRES
    55   27   91 1    
    56   28   29 2    
    57   28   30 1    
    58   30   31 1    
    59   30   32 1    
    60   30   92 1    
    61   31   93 1    
    62   31   94 1    
    63   31   95 1    
    64   32   33 am   BACKBONE|DICT|INTERRES
    65   32   96 1    
    66   33   34 2    
    67   33   35 1    
    68   35   36 1    
    69   35   37 1    
    70   35   97 1    
    71   36   98 1    
    72   36   99 1    
    73   36  100 1    
    74   37   38 am   BACKBONE|DICT|INTERRES
    75   37  101 1    
    76   38   39 2    
    77   38   40 1    
    78   40   41 1    
    79   40   42 1    
    80   40  102 1    
    81   41  103 1    
    82   41  104 1    
    83   41  105 1    
    84   42   43 am   BACKBONE|DICT|INTERRES
    85   42  106 1    
    86   43   44 2    
    87   43   45 1    
    88   45   46 1    
    89   45   49 1    
    90   45  107 1    
    91   46   47 1    
    92   46  108 1    
    93   46  109 1    
    94   47   48 1    
    95   48  110 1    
    96   48  111 1    
    97   49   50 am   BACKBONE|DICT|INTERRES
    98   49  112 1    
    99   50   51 2    
   100   50   52 1    
   101   52   53 1    
   102   52   54 1    
   103   52  113 1    
   104   53  114 1    
   105   53  115 1    
   106   53  116 1    
   107   54   55 am   BACKBONE|DICT|INTERRES
   108   54  117 1    
   109   55   56 2    
   110   55   57 1    
   111   57   58 1    
   112   57   59 1    
   113   57  118 1    
   114   58  119 1    
   115   58  120 1    
   116   58  121 1    
   117   59   60 am   BACKBONE|DICT|INTERRES
   118   59  122 1    
   119   60   61 2    
   120   60   62 1    
   121   62   63 1    
   122   62   64 1    
   123   62  123 1    
   124   63  124 1    
   125   63  125 1    
   126   63  126 1    
   127   64   65 am   BACKBONE|DICT|INTERRES
   128   64  127 1    
   129   65   66 2    
@<TRIPOS>SUBSTRUCTURE
     1 UNK         1 GROUP             0       ****    0 ROOT    
