@<TRIPOS>MOLECULE
3R135
127   129    1
SMALL
USER_CHARGES


@<TRIPOS>ATOM
      1 CA        -77.3543   26.5582  -72.1591 C.3       0 UNK        -0.1998 
      2 C         -78.7338   26.0025  -71.8658 C.2       0 UNK         0.4909 
      3 O         -78.8891   24.7929  -71.6937 O.2       0 UNK        -0.5240 
      4 N         -79.7431   26.8778  -71.8131 N.am      1 UNK        -0.4739 
      5 CA        -81.1370   26.5508  -71.4887 C.3       1 UNK         0.0864 
      6 C6        -81.8957   27.7654  -70.8908 C.3       11 UNK        -0.0881 
      7 S7        -81.0507   28.4742  -69.4320 S.3       11 UNK        -0.2682 
      8 C8        -80.5994   30.1437  -70.0092 C.3       11 UNK         0.0289 
      9 C9        -79.5275   30.1204  -71.0914 C.ar      11 UNK        -0.0687 
     10 C10       -79.8904   30.1907  -72.4396 C.ar      11 UNK        -0.0823 
     11 C11       -78.9213   30.1828  -73.4460 C.ar      11 UNK        -0.0830 
     12 C12       -77.5694   30.1264  -73.0844 C.ar      11 UNK        -0.1021 
     13 C13       -77.1880   30.0732  -71.7401 C.ar      11 UNK        -0.0753 
     14 C14       -78.1731   30.0611  -70.7471 C.ar      11 UNK        -0.0933 
     15 C15       -75.7107   30.0336  -71.3706 C.3       11 UNK         0.0166 
     16 S16       -74.8560   31.5450  -71.9168 S.3       11 UNK        -0.2615 
     17 C17       -73.1674   31.2946  -71.2744 C.3       11 UNK        -0.0865 
     18 CA        -72.1776   30.7895  -72.3687 C.3       10 UNK         0.0862 
     19 C         -70.6832   31.0925  -72.0285 C.2       10 UNK         0.5551 
     20 N         -69.7302   30.2712  -72.4530 N.am      10 UNK        -0.7319 
     21 O         -70.3735   32.1040  -71.4031 O.2       10 UNK        -0.5018 
     22 N         -72.4409   29.3965  -72.7810 N.am      10 UNK        -0.4509 
     23 C         -72.3022   28.3042  -72.0190 C.2       10 UNK         0.4899 
     24 O         -71.9698   28.3347  -70.8342 O.2       10 UNK        -0.4839 
     25 CA        -72.5559   26.9335  -72.6732 C.3       9 UNK         0.0222 
     26 CB        -74.0443   26.5606  -72.6086 C.3       9 UNK        -0.1966 
     27 N         -72.0214   26.7599  -74.0321 N.am      9 UNK        -0.4218 
     28 C         -72.3722   27.3679  -75.1752 C.2       9 UNK         0.5020 
     29 O         -73.2211   28.2559  -75.2542 O.2       9 UNK        -0.5274 
     30 CA        -71.6365   26.9115  -76.4425 C.3       8 UNK         0.0270 
     31 CB        -70.2030   26.3983  -76.1509 C.3       8 UNK        -0.1976 
     32 N         -72.4540   25.8960  -77.1084 N.am      8 UNK        -0.4313 
     33 C         -72.1990   25.3409  -78.3016 C.2       8 UNK         0.5041 
     34 O         -71.2301   25.6299  -79.0056 O.2       8 UNK        -0.5577 
     35 CA        -73.2003   24.2906  -78.8096 C.3       7 UNK         0.0284 
     36 CB        -73.2183   23.0402  -77.9129 C.3       7 UNK        -0.1958 
     37 N         -74.5468   24.8471  -78.9292 N.am      7 UNK        -0.4454 
     38 C         -74.9333   25.6975  -79.8913 C.2       7 UNK         0.5089 
     39 O         -74.2199   26.0395  -80.8349 O.2       7 UNK        -0.5125 
     40 CA        -76.3565   26.2716  -79.7855 C.3       6 UNK         0.0408 
     41 CB        -77.3425   25.4508  -80.6321 C.3       6 UNK        -0.1791 
     42 N         -76.8274   26.3398  -78.3999 N.am      6 UNK        -0.4762 
     43 C         -76.4103   27.2583  -77.5140 C.2       6 UNK         0.5007 
     44 O         -75.6187   28.1578  -77.7977 O.2       6 UNK        -0.5032 
     45 CA        -76.9520   27.1410  -76.0700 C.3       5 UNK         0.0783 
     46 C46       -78.3121   27.8713  -75.9175 C.3       11 UNK        -0.0857 
     47 S47       -78.1991   29.6788  -76.1456 S.3       11 UNK        -0.2512 
     48 C48       -79.3804   30.2951  -74.8999 C.3       11 UNK         0.0225 
     49 N         -77.0632   25.7418  -75.6389 N.am      5 UNK        -0.4615 
     50 C         -76.0357   24.8846  -75.5251 C.2       4 UNK         0.5053 
     51 O         -74.8591   25.2081  -75.6827 O.2       4 UNK        -0.5105 
     52 CA        -76.3651   23.4006  -75.2620 C.3       4 UNK         0.0263 
     53 CB        -76.2191   23.0524  -73.7737 C.3       4 UNK        -0.1981 
     54 N         -77.6944   22.9989  -75.7295 N.am      4 UNK        -0.4224 
     55 C         -78.1006   23.0563  -77.0056 C.2       3 UNK         0.4895 
     56 O         -77.3567   23.3661  -77.9360 O.2       3 UNK        -0.5091 
     57 CA        -79.5871   22.7810  -77.2997 C.3       3 UNK         0.0250 
     58 CB        -79.7619   21.3619  -77.8635 C.3       3 UNK        -0.1996 
     59 N         -80.5100   22.9675  -76.1699 N.am      3 UNK        -0.4254 
     60 C         -80.6632   24.0802  -75.4350 C.2       2 UNK         0.5004 
     61 O         -79.9559   25.0821  -75.5663 O.2       2 UNK        -0.5226 
     62 CA        -81.7799   24.0729  -74.3742 C.3       2 UNK         0.0269 
     63 CB        -82.2169   22.6583  -73.9394 C.3       2 UNK        -0.1926 
     64 N         -81.3285   24.8063  -73.1939 N.am      2 UNK        -0.4687 
     65 C         -81.8615   25.9317  -72.7066 C.2       1 UNK         0.5165 
     66 O         -82.8597   26.4769  -73.1824 O.2       1 UNK        -0.5079 
     67 H67       -77.3912   27.3162  -72.9383 H         1 UNK         0.0900 
     68 H68       -76.9288   27.0013  -71.2600 H         1 UNK         0.0900 
     69 H69       -76.6942   25.7633  -72.4960 H         1 UNK         0.0900 
     70 H70       -79.5530   27.8614  -71.9526 H         1 UNK         0.2959 
     71 H71       -81.1286   25.7768  -70.7175 H         1 UNK         0.1079 
     72 H72       -82.8943   27.4596  -70.5731 H         1 UNK         0.0837 
     73 H73       -82.0520   28.5377  -71.6437 H         1 UNK         0.0837 
     74 H74       -81.4937   30.6582  -70.3648 H         1 UNK         0.0685 
     75 H75       -80.2405   30.7215  -69.1562 H         1 UNK         0.0685 
     76 H76       -80.9353   30.2647  -72.7091 H         1 UNK         0.1434 
     77 H77       -76.7986   30.1468  -73.8419 H         1 UNK         0.1329 
     78 H78       -77.8888   30.0175  -69.7045 H         1 UNK         0.1335 
     79 H79       -75.2475   29.1668  -71.8406 H         1 UNK         0.0680 
     80 H80       -75.5829   29.9152  -70.2936 H         1 UNK         0.0680 
     81 H81       -73.1817   30.6298  -70.4101 H         1 UNK         0.1032 
     82 H82       -72.8535   32.2651  -70.8867 H         1 UNK         0.1032 
     83 H83       -72.3587   31.3858  -73.2637 H         1 UNK         0.0461 
     84 H84       -68.7672   30.4794  -72.2409 H         1 UNK         0.3453 
     85 H85       -69.9668   29.4450  -72.9774 H         1 UNK         0.3453 
     86 H86       -72.7389   29.2567  -73.7435 H         1 UNK         0.2984 
     87 H87       -72.0194   26.2046  -72.0633 H         1 UNK         0.0554 
     88 H88       -74.4186   26.6350  -71.5869 H         1 UNK         0.0847 
     89 H89       -74.2036   25.5352  -72.9393 H         1 UNK         0.0847 
     90 H90       -74.6549   27.2120  -73.2341 H         1 UNK         0.0847 
     91 H91       -71.2867   26.0697  -74.1051 H         1 UNK         0.3141 
     92 H92       -71.5665   27.7787  -77.1023 H         1 UNK         0.0743 
     93 H93       -70.2048   25.4229  -75.6628 H         1 UNK         0.0784 
     94 H94       -69.6211   26.3014  -77.0672 H         1 UNK         0.0784 
     95 H95       -69.6545   27.0936  -75.5134 H         1 UNK         0.0784 
     96 H96       -73.3088   25.6358  -76.6138 H         1 UNK         0.3213 
     97 H97       -72.8762   23.9755  -79.8042 H         1 UNK         0.0855 
     98 H98       -73.4934   23.2709  -76.8846 H         1 UNK         0.0814 
     99 H99       -72.2329   22.5733  -77.8844 H         1 UNK         0.0814 
    100 H100      -73.9190   22.2936  -78.2875 H         1 UNK         0.0814 
    101 H101      -75.2130   24.6148  -78.2055 H         1 UNK         0.3105 
    102 H102      -76.3356   27.2856  -80.1909 H         1 UNK         0.0547 
    103 H103      -77.0506   25.4619  -81.6830 H         1 UNK         0.0837 
    104 H104      -77.3794   24.4069  -80.3207 H         1 UNK         0.0837 
    105 H105      -78.3525   25.8562  -80.5733 H         1 UNK         0.0837 
    106 H106      -77.4295   25.5885  -78.0871 H         1 UNK         0.3020 
    107 H107      -76.2213   27.6231  -75.4154 H         1 UNK         0.1245 
    108 H108      -78.7256   27.6726  -74.9278 H         1 UNK         0.0781 
    109 H109      -79.0447   27.4789  -76.6254 H         1 UNK         0.0781 
    110 H110      -80.3276   29.7703  -75.0360 H         1 UNK         0.0836 
    111 H111      -79.5789   31.3465  -75.1114 H         1 UNK         0.0836 
    112 H112      -78.0107   25.3916  -75.5226 H         1 UNK         0.3022 
    113 H113      -75.6340   22.8097  -75.8168 H         1 UNK         0.0747 
    114 H114      -76.2909   21.9766  -73.6130 H         1 UNK         0.0793 
    115 H115      -75.2495   23.3694  -73.3878 H         1 UNK         0.0793 
    116 H116      -76.9891   23.5291  -73.1683 H         1 UNK         0.0793 
    117 H117      -78.3695   22.7398  -75.0254 H         1 UNK         0.3047 
    118 H118      -79.8862   23.4920  -78.0726 H         1 UNK         0.0822 
    119 H119      -80.7847   21.1896  -78.1993 H         1 UNK         0.0807 
    120 H120      -79.5172   20.6001  -77.1221 H         1 UNK         0.0807 
    121 H121      -79.1109   21.1996  -78.7242 H         1 UNK         0.0807 
    122 H122      -81.1256   22.1914  -75.9732 H         1 UNK         0.2946 
    123 H123      -82.6379   24.5749  -74.8265 H         1 UNK         0.1144 
    124 H124      -82.6739   22.1071  -74.7620 H         1 UNK         0.0793 
    125 H125      -82.9636   22.7082  -73.1464 H         1 UNK         0.0793 
    126 H126      -81.3784   22.0705  -73.5629 H         1 UNK         0.0793 
    127 H127      -80.4564   24.4961  -72.7729 H         1 UNK         0.2896 
@<TRIPOS>BOND
     1    1    2 1    
     2    1   67 1    
     3    1   68 1    
     4    1   69 1    
     5    2    3 2    
     6    2    4 am   BACKBONE|DICT|INTERRES
     7    4    5 1    
     8    4   70 1    
     9    5    6 1    
    10    5   65 1    
    11    5   71 1    
    12    6    7 1    
    13    6   72 1    
    14    6   73 1    
    15    7    8 1    
    16    8    9 1    
    17    8   74 1    
    18    8   75 1    
    19    9   10 ar   
    20    9   14 ar   
    21   10   11 ar   
    22   10   76 1    
    23   11   12 ar   
    24   11   48 1    
    25   12   13 ar   
    26   12   77 1    
    27   13   14 ar   
    28   13   15 1    
    29   14   78 1    
    30   15   16 1    
    31   15   79 1    
    32   15   80 1    
    33   16   17 1    
    34   17   18 1    
    35   17   81 1    
    36   17   82 1    
    37   18   19 1    
    38   18   22 1    
    39   18   83 1    
    40   19   20 am   BACKBONE|DICT|INTERRES
    41   19   21 2    
    42   20   84 1    
    43   20   85 1    
    44   22   23 am   BACKBONE|DICT|INTERRES
    45   22   86 1    
    46   23   24 2    
    47   23   25 1    
    48   25   26 1    
    49   25   27 1    
    50   25   87 1    
    51   26   88 1    
    52   26   89 1    
    53   26   90 1    
    54   27   28 am   BACKBONE|DICT|INTERRES
    55   27   91 1    
    56   28   29 2    
    57   28   30 1    
    58   30   31 1    
    59   30   32 1    
    60   30   92 1    
    61   31   93 1    
    62   31   94 1    
    63   31   95 1    
    64   32   33 am   BACKBONE|DICT|INTERRES
    65   32   96 1    
    66   33   34 2    
    67   33   35 1    
    68   35   36 1    
    69   35   37 1    
    70   35   97 1    
    71   36   98 1    
    72   36   99 1    
    73   36  100 1    
    74   37   38 am   BACKBONE|DICT|INTERRES
    75   37  101 1    
    76   38   39 2    
    77   38   40 1    
    78   40   41 1    
    79   40   42 1    
    80   40  102 1    
    81   41  103 1    
    82   41  104 1    
    83   41  105 1    
    84   42   43 am   BACKBONE|DICT|INTERRES
    85   42  106 1    
    86   43   44 2    
    87   43   45 1    
    88   45   46 1    
    89   45   49 1    
    90   45  107 1    
    91   46   47 1    
    92   46  108 1    
    93   46  109 1    
    94   47   48 1    
    95   48  110 1    
    96   48  111 1    
    97   49   50 am   BACKBONE|DICT|INTERRES
    98   49  112 1    
    99   50   51 2    
   100   50   52 1    
   101   52   53 1    
   102   52   54 1    
   103   52  113 1    
   104   53  114 1    
   105   53  115 1    
   106   53  116 1    
   107   54   55 am   BACKBONE|DICT|INTERRES
   108   54  117 1    
   109   55   56 2    
   110   55   57 1    
   111   57   58 1    
   112   57   59 1    
   113   57  118 1    
   114   58  119 1    
   115   58  120 1    
   116   58  121 1    
   117   59   60 am   BACKBONE|DICT|INTERRES
   118   59  122 1    
   119   60   61 2    
   120   60   62 1    
   121   62   63 1    
   122   62   64 1    
   123   62  123 1    
   124   63  124 1    
   125   63  125 1    
   126   63  126 1    
   127   64   65 am   BACKBONE|DICT|INTERRES
   128   64  127 1    
   129   65   66 2    
@<TRIPOS>SUBSTRUCTURE
     1 UNK         1 GROUP             0       ****    0 ROOT    
