@<TRIPOS>MOLECULE
3R135
127   129    1
SMALL
USER_CHARGES


@<TRIPOS>ATOM
      1 CA        -84.7543   25.3331  -71.3020 C.3       0 UNK        -0.1998 
      2 C         -83.4606   25.6877  -72.0191 C.2       0 UNK         0.4909 
      3 O         -82.4901   24.9349  -71.9294 O.2       0 UNK        -0.5240 
      4 N         -83.4503   26.8193  -72.7392 N.am      1 UNK        -0.4739 
      5 CA        -82.3361   27.4121  -73.5032 C.3       1 UNK         0.0864 
      6 C6        -81.0606   27.6937  -72.6656 C.3       11 UNK        -0.0881 
      7 S7        -81.3834   28.7332  -71.1976 S.3       11 UNK        -0.2682 
      8 C8        -80.4909   30.2748  -71.6039 C.3       11 UNK         0.0289 
      9 C9        -78.9974   30.0892  -71.8701 C.ar      11 UNK        -0.0687 
     10 C10       -78.2373   29.1512  -71.1610 C.ar      11 UNK        -0.0823 
     11 C11       -76.8863   28.9564  -71.4609 C.ar      11 UNK        -0.0830 
     12 C12       -76.2835   29.7573  -72.4322 C.ar      11 UNK        -0.1021 
     13 C13       -77.0112   30.7297  -73.1271 C.ar      11 UNK        -0.0753 
     14 C14       -78.3734   30.8750  -72.8451 C.ar      11 UNK        -0.0933 
     15 C15       -76.3785   31.6136  -74.2068 C.3       11 UNK         0.0166 
     16 S16       -74.6128   32.0155  -73.9574 S.3       11 UNK        -0.2615 
     17 C17       -73.7893   30.5798  -74.7327 C.3       11 UNK        -0.0865 
     18 CA        -72.3735   30.2774  -74.1717 C.3       10 UNK         0.0862 
     19 C         -72.3958   29.6781  -72.7290 C.2       10 UNK         0.5551 
     20 N         -71.9998   28.4297  -72.5096 N.am      10 UNK        -0.7319 
     21 O         -72.7493   30.3692  -71.7778 O.2       10 UNK        -0.5018 
     22 N         -71.6106   29.4793  -75.1421 N.am      10 UNK        -0.4509 
     23 C         -70.2766   29.3685  -75.1653 C.2       10 UNK         0.4899 
     24 O         -69.5251   30.0317  -74.4485 O.2       10 UNK        -0.4839 
     25 CA        -69.6875   28.3407  -76.1560 C.3       9 UNK         0.0222 
     26 CB        -68.2812   27.8608  -75.7387 C.3       9 UNK        -0.1966 
     27 N         -70.5635   27.1871  -76.4137 N.am      9 UNK        -0.4218 
     28 C         -71.0647   26.3202  -75.5214 C.2       9 UNK         0.5020 
     29 O         -70.8809   26.4083  -74.3062 O.2       9 UNK        -0.5274 
     30 CA        -71.9406   25.1856  -76.0896 C.3       8 UNK         0.0270 
     31 CB        -72.4301   24.2159  -74.9992 C.3       8 UNK        -0.1976 
     32 N         -73.1060   25.6906  -76.8185 N.am      8 UNK        -0.4313 
     33 C         -73.0965   26.2369  -78.0417 C.2       8 UNK         0.5041 
     34 O         -72.0674   26.4041  -78.6988 O.2       8 UNK        -0.5577 
     35 CA        -74.4419   26.6906  -78.6281 C.3       7 UNK         0.0284 
     36 CB        -74.9243   25.7008  -79.7021 C.3       7 UNK        -0.1958 
     37 N         -75.4707   26.8342  -77.5921 N.am      7 UNK        -0.4454 
     38 C         -75.7768   27.9988  -77.0065 C.2       7 UNK         0.5089 
     39 O         -75.2342   29.0662  -77.2912 O.2       7 UNK        -0.5125 
     40 CA        -76.8715   27.9937  -75.9284 C.3       6 UNK         0.0408 
     41 CB        -78.2565   28.2153  -76.5553 C.3       6 UNK        -0.1791 
     42 N         -76.9088   26.8040  -75.0788 N.am      6 UNK        -0.4762 
     43 C         -75.9866   26.4930  -74.1547 C.2       6 UNK         0.5007 
     44 O         -74.8886   27.0422  -74.0718 O.2       6 UNK        -0.5032 
     45 CA        -76.3713   25.3871  -73.1536 C.3       5 UNK         0.0783 
     46 C46       -77.4885   25.8669  -72.1835 C.3       11 UNK        -0.0857 
     47 S47       -76.8847   26.2883  -70.5142 S.3       11 UNK        -0.2512 
     48 C48       -76.0497   27.8979  -70.7465 C.3       11 UNK         0.0225 
     49 N         -76.7860   24.2041  -73.9039 N.am      5 UNK        -0.4615 
     50 C         -76.0672   23.0827  -74.0346 C.2       4 UNK         0.5053 
     51 O         -75.0385   22.8501  -73.4008 O.2       4 UNK        -0.5105 
     52 CA        -76.5630   22.0396  -75.0580 C.3       4 UNK         0.0263 
     53 CB        -77.2963   20.8941  -74.3415 C.3       4 UNK        -0.1981 
     54 N         -77.4360   22.5842  -76.1043 N.am      4 UNK        -0.4224 
     55 C         -77.1062   23.5620  -76.9608 C.2       3 UNK         0.4895 
     56 O         -75.9952   24.0882  -77.0049 O.2       3 UNK        -0.5091 
     57 CA        -78.2240   24.1098  -77.8661 C.3       3 UNK         0.0250 
     58 CB        -78.2187   23.3835  -79.2200 C.3       3 UNK        -0.1996 
     59 N         -79.5716   24.0508  -77.2827 N.am      3 UNK        -0.4254 
     60 C         -79.9427   24.5758  -76.1052 C.2       2 UNK         0.5004 
     61 O         -79.1639   25.1356  -75.3269 O.2       2 UNK        -0.5226 
     62 CA        -81.4166   24.3792  -75.7141 C.3       2 UNK         0.0269 
     63 CB        -81.6502   22.9407  -75.2228 C.3       2 UNK        -0.1926 
     64 N         -81.8336   25.3001  -74.6574 N.am      2 UNK        -0.4687 
     65 C         -81.9820   26.6237  -74.7824 C.2       1 UNK         0.5165 
     66 O         -81.8665   27.2235  -75.8523 O.2       1 UNK        -0.5079 
     67 H67       -85.1261   24.3709  -71.6531 H         1 UNK         0.0900 
     68 H68       -85.5317   26.0787  -71.4679 H         1 UNK         0.0900 
     69 H69       -84.5787   25.2600  -70.2290 H         1 UNK         0.0900 
     70 H70       -84.3029   27.3610  -72.7756 H         1 UNK         0.2959 
     71 H71       -82.7094   28.3786  -73.8467 H         1 UNK         0.1079 
     72 H72       -80.3035   28.1717  -73.2900 H         1 UNK         0.0837 
     73 H73       -80.6095   26.7616  -72.3217 H         1 UNK         0.0837 
     74 H74       -80.6118   30.9761  -70.7775 H         1 UNK         0.0685 
     75 H75       -80.9766   30.7284  -72.4695 H         1 UNK         0.0685 
     76 H76       -78.7034   28.5463  -70.3959 H         1 UNK         0.1434 
     77 H77       -75.2369   29.6102  -72.6392 H         1 UNK         0.1329 
     78 H78       -78.9537   31.6076  -73.3897 H         1 UNK         0.1335 
     79 H79       -76.5124   31.1513  -75.1851 H         1 UNK         0.0680 
     80 H80       -76.9157   32.5624  -74.2482 H         1 UNK         0.0680 
     81 H81       -73.7185   30.8139  -75.7963 H         1 UNK         0.1032 
     82 H82       -74.4194   29.6920  -74.6779 H         1 UNK         0.1032 
     83 H83       -71.8537   31.2338  -74.0862 H         1 UNK         0.0461 
     84 H84       -71.6730   27.8340  -73.2642 H         1 UNK         0.3453 
     85 H85       -72.0085   28.0742  -71.5681 H         1 UNK         0.3453 
     86 H86       -72.1496   28.8819  -75.7507 H         1 UNK         0.2984 
     87 H87       -69.5890   28.8636  -77.1082 H         1 UNK         0.0554 
     88 H88       -67.8715   27.1548  -76.4609 H         1 UNK         0.0847 
     89 H89       -68.2953   27.3729  -74.7633 H         1 UNK         0.0847 
     90 H90       -67.5826   28.6959  -75.6746 H         1 UNK         0.0847 
     91 H91       -70.8373   27.0378  -77.3838 H         1 UNK         0.3141 
     92 H92       -71.3188   24.6171  -76.7843 H         1 UNK         0.0743 
     93 H93       -73.0600   24.7207  -74.2652 H         1 UNK         0.0784 
     94 H94       -73.0071   23.3952  -75.4264 H         1 UNK         0.0784 
     95 H95       -71.5909   23.7745  -74.4602 H         1 UNK         0.0784 
     96 H96       -73.9956   25.6132  -76.3460 H         1 UNK         0.3213 
     97 H97       -74.2737   27.6510  -79.1205 H         1 UNK         0.0855 
     98 H98       -75.0002   24.6838  -79.3179 H         1 UNK         0.0814 
     99 H99       -74.2277   25.6737  -80.5410 H         1 UNK         0.0814 
    100 H100      -75.8985   25.9858  -80.0993 H         1 UNK         0.0814 
    101 H101      -75.9136   25.9763  -77.2751 H         1 UNK         0.3105 
    102 H102      -76.6729   28.8396  -75.2714 H         1 UNK         0.0547 
    103 H103      -78.2708   29.1218  -77.1618 H         1 UNK         0.0837 
    104 H104      -78.5488   27.3862  -77.1996 H         1 UNK         0.0837 
    105 H105      -79.0244   28.3278  -75.7895 H         1 UNK         0.0837 
    106 H106      -77.7735   26.2657  -75.1044 H         1 UNK         0.3020 
    107 H107      -75.4732   25.1551  -72.5763 H         1 UNK         0.1245 
    108 H108      -78.0741   26.6958  -72.5848 H         1 UNK         0.0781 
    109 H109      -78.2191   25.0697  -72.0345 H         1 UNK         0.0781 
    110 H110      -75.7617   28.2856  -69.7687 H         1 UNK         0.0836 
    111 H111      -75.1188   27.7198  -71.2879 H         1 UNK         0.0836 
    112 H112      -77.6253   24.3128  -74.4647 H         1 UNK         0.3022 
    113 H113      -75.6793   21.6295  -75.5511 H         1 UNK         0.0747 
    114 H114      -77.5696   20.0999  -75.0365 H         1 UNK         0.0793 
    115 H115      -76.6642   20.4456  -73.5736 H         1 UNK         0.0793 
    116 H116      -78.2066   21.2423  -73.8514 H         1 UNK         0.0793 
    117 H117      -78.3779   22.2233  -76.1395 H         1 UNK         0.3047 
    118 H118      -78.0004   25.1621  -78.0488 H         1 UNK         0.0822 
    119 H119      -78.4828   22.3304  -79.1152 H         1 UNK         0.0807 
    120 H120      -77.2325   23.4267  -79.6845 H         1 UNK         0.0807 
    121 H121      -78.9213   23.8389  -79.9182 H         1 UNK         0.0807 
    122 H122      -80.2752   23.5921  -77.8443 H         1 UNK         0.2946 
    123 H123      -82.0360   24.5666  -76.5942 H         1 UNK         0.1144 
    124 H124      -82.6947   22.7792  -74.9550 H         1 UNK         0.0793 
    125 H125      -81.0427   22.7117  -74.3459 H         1 UNK         0.0793 
    126 H126      -81.4010   22.2104  -75.9938 H         1 UNK         0.0793 
    127 H127      -81.9375   24.9168  -73.7212 H         1 UNK         0.2896 
@<TRIPOS>BOND
     1    1    2 1    
     2    1   67 1    
     3    1   68 1    
     4    1   69 1    
     5    2    3 2    
     6    2    4 am   BACKBONE|DICT|INTERRES
     7    4    5 1    
     8    4   70 1    
     9    5    6 1    
    10    5   65 1    
    11    5   71 1    
    12    6    7 1    
    13    6   72 1    
    14    6   73 1    
    15    7    8 1    
    16    8    9 1    
    17    8   74 1    
    18    8   75 1    
    19    9   10 ar   
    20    9   14 ar   
    21   10   11 ar   
    22   10   76 1    
    23   11   12 ar   
    24   11   48 1    
    25   12   13 ar   
    26   12   77 1    
    27   13   14 ar   
    28   13   15 1    
    29   14   78 1    
    30   15   16 1    
    31   15   79 1    
    32   15   80 1    
    33   16   17 1    
    34   17   18 1    
    35   17   81 1    
    36   17   82 1    
    37   18   19 1    
    38   18   22 1    
    39   18   83 1    
    40   19   20 am   BACKBONE|DICT|INTERRES
    41   19   21 2    
    42   20   84 1    
    43   20   85 1    
    44   22   23 am   BACKBONE|DICT|INTERRES
    45   22   86 1    
    46   23   24 2    
    47   23   25 1    
    48   25   26 1    
    49   25   27 1    
    50   25   87 1    
    51   26   88 1    
    52   26   89 1    
    53   26   90 1    
    54   27   28 am   BACKBONE|DICT|INTERRES
    55   27   91 1    
    56   28   29 2    
    57   28   30 1    
    58   30   31 1    
    59   30   32 1    
    60   30   92 1    
    61   31   93 1    
    62   31   94 1    
    63   31   95 1    
    64   32   33 am   BACKBONE|DICT|INTERRES
    65   32   96 1    
    66   33   34 2    
    67   33   35 1    
    68   35   36 1    
    69   35   37 1    
    70   35   97 1    
    71   36   98 1    
    72   36   99 1    
    73   36  100 1    
    74   37   38 am   BACKBONE|DICT|INTERRES
    75   37  101 1    
    76   38   39 2    
    77   38   40 1    
    78   40   41 1    
    79   40   42 1    
    80   40  102 1    
    81   41  103 1    
    82   41  104 1    
    83   41  105 1    
    84   42   43 am   BACKBONE|DICT|INTERRES
    85   42  106 1    
    86   43   44 2    
    87   43   45 1    
    88   45   46 1    
    89   45   49 1    
    90   45  107 1    
    91   46   47 1    
    92   46  108 1    
    93   46  109 1    
    94   47   48 1    
    95   48  110 1    
    96   48  111 1    
    97   49   50 am   BACKBONE|DICT|INTERRES
    98   49  112 1    
    99   50   51 2    
   100   50   52 1    
   101   52   53 1    
   102   52   54 1    
   103   52  113 1    
   104   53  114 1    
   105   53  115 1    
   106   53  116 1    
   107   54   55 am   BACKBONE|DICT|INTERRES
   108   54  117 1    
   109   55   56 2    
   110   55   57 1    
   111   57   58 1    
   112   57   59 1    
   113   57  118 1    
   114   58  119 1    
   115   58  120 1    
   116   58  121 1    
   117   59   60 am   BACKBONE|DICT|INTERRES
   118   59  122 1    
   119   60   61 2    
   120   60   62 1    
   121   62   63 1    
   122   62   64 1    
   123   62  123 1    
   124   63  124 1    
   125   63  125 1    
   126   63  126 1    
   127   64   65 am   BACKBONE|DICT|INTERRES
   128   64  127 1    
   129   65   66 2    
@<TRIPOS>SUBSTRUCTURE
     1 UNK         1 GROUP             0       ****    0 ROOT    
