@<TRIPOS>MOLECULE
3R135
127   129    1
SMALL
USER_CHARGES


@<TRIPOS>ATOM
      1 CA        -84.2281   23.1184  -73.4613 C.3       0 UNK        -0.1998 
      2 C         -82.8927   23.8306  -73.3143 C.2       0 UNK         0.4909 
      3 O         -81.8977   23.3862  -73.8861 O.2       0 UNK        -0.5240 
      4 N         -82.8658   24.9477  -72.5706 N.am      1 UNK        -0.4739 
      5 CA        -81.6763   25.7633  -72.2611 C.3       1 UNK         0.0864 
      6 C6        -80.6886   25.0016  -71.3267 C.3       11 UNK        -0.0881 
      7 S7        -79.7573   25.8919  -70.0178 S.3       11 UNK        -0.2682 
      8 C8        -80.1198   27.6845  -70.0744 C.3       11 UNK         0.0289 
      9 C9        -79.0659   28.4862  -70.8294 C.ar      11 UNK        -0.0687 
     10 C10       -79.4276   29.3191  -71.8944 C.ar      11 UNK        -0.0823 
     11 C11       -78.4683   30.1121  -72.5361 C.ar      11 UNK        -0.0830 
     12 C12       -77.1410   30.0686  -72.1013 C.ar      11 UNK        -0.1021 
     13 C13       -76.7646   29.2286  -71.0520 C.ar      11 UNK        -0.0753 
     14 C14       -77.7301   28.4455  -70.4155 C.ar      11 UNK        -0.0933 
     15 C15       -75.3117   29.1659  -70.6192 C.3       11 UNK         0.0166 
     16 S16       -74.4005   27.9850  -71.6524 S.3       11 UNK        -0.2615 
     17 C17       -72.6834   28.3735  -71.1738 C.3       11 UNK        -0.0865 
     18 CA        -72.0147   29.4546  -72.0677 C.3       10 UNK         0.0862 
     19 C         -70.5244   29.6268  -71.6492 C.2       10 UNK         0.5551 
     20 N         -69.5603   29.1044  -72.4002 N.am      10 UNK        -0.7319 
     21 O         -70.2444   30.2388  -70.6216 O.2       10 UNK        -0.5018 
     22 N         -72.2207   29.1723  -73.4943 N.am      10 UNK        -0.4509 
     23 C         -71.8539   29.9409  -74.5278 C.2       10 UNK         0.4899 
     24 O         -71.4257   31.0896  -74.4083 O.2       10 UNK        -0.4839 
     25 CA        -71.9726   29.3052  -75.9317 C.3       9 UNK         0.0222 
     26 CB        -70.8487   29.7701  -76.8818 C.3       9 UNK        -0.1966 
     27 N         -72.0603   27.8335  -75.9062 N.am      9 UNK        -0.4218 
     28 C         -71.1511   26.9864  -75.3930 C.2       9 UNK         0.5020 
     29 O         -70.0638   27.3443  -74.9355 O.2       9 UNK        -0.5274 
     30 CA        -71.5367   25.5055  -75.2862 C.3       8 UNK         0.0270 
     31 CB        -71.9149   25.1674  -73.8328 C.3       8 UNK        -0.1976 
     32 N         -72.6461   25.1297  -76.1667 N.am      8 UNK        -0.4313 
     33 C         -72.4758   24.5753  -77.3735 C.2       8 UNK         0.5041 
     34 O         -71.3774   24.4323  -77.9135 O.2       8 UNK        -0.5577 
     35 CA        -73.7290   24.0442  -78.0836 C.3       7 UNK         0.0284 
     36 CB        -74.1974   22.7328  -77.4313 C.3       7 UNK        -0.1958 
     37 N         -74.8364   25.0008  -78.1308 N.am      7 UNK        -0.4454 
     38 C         -74.8625   26.0737  -78.9340 C.2       7 UNK         0.5089 
     39 O         -73.9178   26.4231  -79.6425 O.2       7 UNK        -0.5125 
     40 CA        -76.1738   26.8762  -78.9881 C.3       6 UNK         0.0408 
     41 CB        -77.2283   26.1355  -79.8260 C.3       6 UNK        -0.1791 
     42 N         -76.7235   27.1713  -77.6666 N.am      6 UNK        -0.4762 
     43 C         -76.1714   28.0174  -76.7854 C.2       6 UNK         0.5007 
     44 O         -75.1441   28.6580  -77.0030 O.2       6 UNK        -0.5032 
     45 CA        -76.8692   28.1323  -75.4149 C.3       5 UNK         0.0783 
     46 C46       -78.1620   28.9859  -75.5166 C.3       11 UNK        -0.0857 
     47 S47       -77.8611   30.7524  -75.1932 S.3       11 UNK        -0.2512 
     48 C48       -78.8664   31.0235  -73.6924 C.3       11 UNK         0.0225 
     49 N         -77.1360   26.8192  -74.8225 N.am      5 UNK        -0.4615 
     50 C         -76.2352   25.8465  -74.6215 C.2       4 UNK         0.5053 
     51 O         -75.0331   25.9436  -74.8704 O.2       4 UNK        -0.5105 
     52 CA        -76.7921   24.5054  -74.1250 C.3       4 UNK         0.0263 
     53 CB        -77.0162   24.5430  -72.6052 C.3       4 UNK        -0.1981 
     54 N         -78.0356   24.1502  -74.8172 N.am      4 UNK        -0.4224 
     55 C         -78.1101   23.8604  -76.1259 C.2       3 UNK         0.4895 
     56 O         -77.1333   23.7953  -76.8707 O.2       3 UNK        -0.5091 
     57 CA        -79.5127   23.6661  -76.7200 C.3       3 UNK         0.0250 
     58 CB        -80.0474   22.2579  -76.4168 C.3       3 UNK        -0.1996 
     59 N         -80.4545   24.6824  -76.2454 N.am      3 UNK        -0.4254 
     60 C         -80.3799   25.9799  -76.5847 C.2       2 UNK         0.5004 
     61 O         -79.5429   26.4298  -77.3669 O.2       2 UNK        -0.5226 
     62 CA        -81.3763   26.9538  -75.9271 C.3       2 UNK         0.0269 
     63 CB        -82.6134   27.1324  -76.8208 C.3       2 UNK        -0.1926 
     64 N         -81.8065   26.5604  -74.5828 N.am      2 UNK        -0.4687 
     65 C         -80.9997   26.3262  -73.5359 C.2       1 UNK         0.5165 
     66 O         -79.7791   26.4812  -73.5830 O.2       1 UNK        -0.5079 
     67 H67       -85.0256   23.6300  -72.9229 H         1 UNK         0.0900 
     68 H68       -84.1538   22.1027  -73.0739 H         1 UNK         0.0900 
     69 H69       -84.5090   23.0623  -74.5127 H         1 UNK         0.0900 
     70 H70       -83.7255   25.2668  -72.1440 H         1 UNK         0.2959 
     71 H71       -82.0916   26.6182  -71.7373 H         1 UNK         0.1079 
     72 H72       -81.2476   24.2441  -70.7750 H         1 UNK         0.0837 
     73 H73       -79.9770   24.4196  -71.9146 H         1 UNK         0.0837 
     74 H74       -81.1245   27.9041  -70.4246 H         1 UNK         0.0685 
     75 H75       -80.1088   28.0402  -69.0432 H         1 UNK         0.0685 
     76 H76       -80.4587   29.3580  -72.2169 H         1 UNK         0.1434 
     77 H77       -76.3939   30.6757  -72.5945 H         1 UNK         0.1329 
     78 H78       -77.4431   27.8026  -69.5947 H         1 UNK         0.1335 
     79 H79       -74.8580   30.1548  -70.7031 H         1 UNK         0.0680 
     80 H80       -75.2332   28.8723  -69.5712 H         1 UNK         0.0680 
     81 H81       -72.1175   27.4409  -71.2242 H         1 UNK         0.1032 
     82 H82       -72.6621   28.6767  -70.1250 H         1 UNK         0.1032 
     83 H83       -72.5079   30.4074  -71.8673 H         1 UNK         0.0461 
     84 H84       -68.5993   29.2209  -72.1213 H         1 UNK         0.3453 
     85 H85       -69.7821   28.5911  -73.2456 H         1 UNK         0.3453 
     86 H86       -72.6023   28.2614  -73.6991 H         1 UNK         0.2984 
     87 H87       -72.9134   29.6683  -76.3421 H         1 UNK         0.0554 
     88 H88       -70.9520   29.3184  -77.8683 H         1 UNK         0.0847 
     89 H89       -69.8604   29.5165  -76.4975 H         1 UNK         0.0847 
     90 H90       -70.8742   30.8518  -77.0190 H         1 UNK         0.0847 
     91 H91       -72.9343   27.4459  -76.2378 H         1 UNK         0.3141 
     92 H92       -70.6488   24.9218  -75.5388 H         1 UNK         0.0743 
     93 H93       -72.7731   25.7452  -73.4882 H         1 UNK         0.0784 
     94 H94       -72.1581   24.1105  -73.7225 H         1 UNK         0.0784 
     95 H95       -71.0879   25.3806  -73.1539 H         1 UNK         0.0784 
     96 H96       -73.5870   25.2594  -75.7953 H         1 UNK         0.3213 
     97 H97       -73.4456   23.8138  -79.1132 H         1 UNK         0.0855 
     98 H98       -74.5343   22.8881  -76.4056 H         1 UNK         0.0814 
     99 H99       -73.3906   21.9992  -77.4030 H         1 UNK         0.0814 
    100 H100      -75.0211   22.2861  -77.9885 H         1 UNK         0.0814 
    101 H101      -75.6720   24.7577  -77.6025 H         1 UNK         0.3105 
    102 H102      -75.9618   27.8270  -79.4818 H         1 UNK         0.0547 
    103 H103      -76.8489   25.9108  -80.8237 H         1 UNK         0.0837 
    104 H104      -77.5207   25.1907  -79.3658 H         1 UNK         0.0837 
    105 H105      -78.1292   26.7369  -79.9491 H         1 UNK         0.0837 
    106 H106      -77.6009   26.7177  -77.4246 H         1 UNK         0.3020 
    107 H107      -76.1687   28.6206  -74.7332 H         1 UNK         0.1245 
    108 H108      -78.8994   28.6357  -74.7958 H         1 UNK         0.0781 
    109 H109      -78.6491   28.8873  -76.4886 H         1 UNK         0.0781 
    110 H110      -79.9187   30.8895  -73.9482 H         1 UNK         0.0836 
    111 H111      -78.7568   32.0619  -73.3772 H         1 UNK         0.0836 
    112 H112      -78.0918   26.6482  -74.5225 H         1 UNK         0.3022 
    113 H113      -76.0528   23.7318  -74.3429 H         1 UNK         0.0747 
    114 H114      -77.4126   23.5979  -72.2344 H         1 UNK         0.0793 
    115 H115      -76.0774   24.7304  -72.0820 H         1 UNK         0.0793 
    116 H116      -77.7054   25.3369  -72.3155 H         1 UNK         0.0793 
    117 H117      -78.8944   24.2416  -74.2930 H         1 UNK         0.3047 
    118 H118      -79.4301   23.7672  -77.8046 H         1 UNK         0.0822 
    119 H119      -81.0376   22.1073  -76.8470 H         1 UNK         0.0807 
    120 H120      -80.1155   22.0697  -75.3450 H         1 UNK         0.0807 
    121 H121      -79.3908   21.4955  -76.8382 H         1 UNK         0.0807 
    122 H122      -81.1385   24.3858  -75.5569 H         1 UNK         0.2946 
    123 H123      -80.8795   27.9209  -75.8424 H         1 UNK         0.1144 
    124 H124      -83.1770   26.2038  -76.9209 H         1 UNK         0.0793 
    125 H125      -82.3267   27.4495  -77.8247 H         1 UNK         0.0793 
    126 H126      -83.2851   27.8935  -76.4233 H         1 UNK         0.0793 
    127 H127      -82.7935   26.3858  -74.4595 H         1 UNK         0.2896 
@<TRIPOS>BOND
     1    1    2 1    
     2    1   67 1    
     3    1   68 1    
     4    1   69 1    
     5    2    3 2    
     6    2    4 am   BACKBONE|DICT|INTERRES
     7    4    5 1    
     8    4   70 1    
     9    5    6 1    
    10    5   65 1    
    11    5   71 1    
    12    6    7 1    
    13    6   72 1    
    14    6   73 1    
    15    7    8 1    
    16    8    9 1    
    17    8   74 1    
    18    8   75 1    
    19    9   10 ar   
    20    9   14 ar   
    21   10   11 ar   
    22   10   76 1    
    23   11   12 ar   
    24   11   48 1    
    25   12   13 ar   
    26   12   77 1    
    27   13   14 ar   
    28   13   15 1    
    29   14   78 1    
    30   15   16 1    
    31   15   79 1    
    32   15   80 1    
    33   16   17 1    
    34   17   18 1    
    35   17   81 1    
    36   17   82 1    
    37   18   19 1    
    38   18   22 1    
    39   18   83 1    
    40   19   20 am   BACKBONE|DICT|INTERRES
    41   19   21 2    
    42   20   84 1    
    43   20   85 1    
    44   22   23 am   BACKBONE|DICT|INTERRES
    45   22   86 1    
    46   23   24 2    
    47   23   25 1    
    48   25   26 1    
    49   25   27 1    
    50   25   87 1    
    51   26   88 1    
    52   26   89 1    
    53   26   90 1    
    54   27   28 am   BACKBONE|DICT|INTERRES
    55   27   91 1    
    56   28   29 2    
    57   28   30 1    
    58   30   31 1    
    59   30   32 1    
    60   30   92 1    
    61   31   93 1    
    62   31   94 1    
    63   31   95 1    
    64   32   33 am   BACKBONE|DICT|INTERRES
    65   32   96 1    
    66   33   34 2    
    67   33   35 1    
    68   35   36 1    
    69   35   37 1    
    70   35   97 1    
    71   36   98 1    
    72   36   99 1    
    73   36  100 1    
    74   37   38 am   BACKBONE|DICT|INTERRES
    75   37  101 1    
    76   38   39 2    
    77   38   40 1    
    78   40   41 1    
    79   40   42 1    
    80   40  102 1    
    81   41  103 1    
    82   41  104 1    
    83   41  105 1    
    84   42   43 am   BACKBONE|DICT|INTERRES
    85   42  106 1    
    86   43   44 2    
    87   43   45 1    
    88   45   46 1    
    89   45   49 1    
    90   45  107 1    
    91   46   47 1    
    92   46  108 1    
    93   46  109 1    
    94   47   48 1    
    95   48  110 1    
    96   48  111 1    
    97   49   50 am   BACKBONE|DICT|INTERRES
    98   49  112 1    
    99   50   51 2    
   100   50   52 1    
   101   52   53 1    
   102   52   54 1    
   103   52  113 1    
   104   53  114 1    
   105   53  115 1    
   106   53  116 1    
   107   54   55 am   BACKBONE|DICT|INTERRES
   108   54  117 1    
   109   55   56 2    
   110   55   57 1    
   111   57   58 1    
   112   57   59 1    
   113   57  118 1    
   114   58  119 1    
   115   58  120 1    
   116   58  121 1    
   117   59   60 am   BACKBONE|DICT|INTERRES
   118   59  122 1    
   119   60   61 2    
   120   60   62 1    
   121   62   63 1    
   122   62   64 1    
   123   62  123 1    
   124   63  124 1    
   125   63  125 1    
   126   63  126 1    
   127   64   65 am   BACKBONE|DICT|INTERRES
   128   64  127 1    
   129   65   66 2    
@<TRIPOS>SUBSTRUCTURE
     1 UNK         1 GROUP             0       ****    0 ROOT    
