@<TRIPOS>MOLECULE
3R135
127   129    1
SMALL
USER_CHARGES


@<TRIPOS>ATOM
      1 CA        -84.7812   28.8269  -74.8147 C.3       0 UNK        -0.1998 
      2 C         -83.3004   28.4831  -74.8605 C.2       0 UNK         0.4909 
      3 O         -82.6300   28.7830  -75.8499 O.2       0 UNK        -0.5240 
      4 N         -82.7801   27.8530  -73.7998 N.am      1 UNK        -0.4739 
      5 CA        -81.3810   27.4325  -73.6710 C.3       1 UNK         0.0864 
      6 C6        -80.9429   27.3136  -72.1869 C.3       11 UNK        -0.0881 
      7 S7        -81.1540   28.8664  -71.2494 S.3       11 UNK        -0.2682 
      8 C8        -79.5443   29.0148  -70.3919 C.3       11 UNK         0.0289 
      9 C9        -78.3539   29.4685  -71.2428 C.ar      11 UNK        -0.0687 
     10 C10       -78.4550   29.7588  -72.6100 C.ar      11 UNK        -0.0823 
     11 C11       -77.3385   30.1696  -73.3421 C.ar      11 UNK        -0.0830 
     12 C12       -76.1104   30.3168  -72.6946 C.ar      11 UNK        -0.1021 
     13 C13       -75.9888   30.0409  -71.3303 C.ar      11 UNK        -0.0753 
     14 C14       -77.1125   29.6160  -70.6142 C.ar      11 UNK        -0.0933 
     15 C15       -74.6484   30.2402  -70.6327 C.3       11 UNK         0.0166 
     16 S16       -74.0161   28.7517  -69.7874 S.3       11 UNK        -0.2615 
     17 C17       -74.0767   27.4577  -71.0731 C.3       11 UNK        -0.0865 
     18 CA        -72.8043   27.3991  -71.9676 C.3       10 UNK         0.0862 
     19 C         -72.3177   25.9377  -72.1858 C.2       10 UNK         0.5551 
     20 N         -72.3818   25.3757  -73.3875 N.am      10 UNK        -0.7319 
     21 O         -71.8437   25.3075  -71.2438 O.2       10 UNK        -0.5018 
     22 N         -73.0168   28.1178  -73.2317 N.am      10 UNK        -0.4509 
     23 C         -72.4960   29.3037  -73.5568 C.2       10 UNK         0.4899 
     24 O         -71.7520   29.9652  -72.8311 O.2       10 UNK        -0.4839 
     25 CA        -72.8915   29.8206  -74.9477 C.3       9 UNK         0.0222 
     26 CB        -72.5151   31.2979  -75.1907 C.3       9 UNK        -0.1966 
     27 N         -72.3832   28.9409  -76.0030 N.am      9 UNK        -0.4218 
     28 C         -71.1067   28.7336  -76.3606 C.2       9 UNK         0.5020 
     29 O         -70.1443   29.3134  -75.8556 O.2       9 UNK        -0.5274 
     30 CA        -70.8396   27.6909  -77.4648 C.3       8 UNK         0.0270 
     31 CB        -70.0675   26.4902  -76.8906 C.3       8 UNK        -0.1976 
     32 N         -72.0460   27.1881  -78.1260 N.am      8 UNK        -0.4313 
     33 C         -72.8425   27.8561  -78.9677 C.2       8 UNK         0.5041 
     34 O         -72.6287   29.0135  -79.3283 O.2       8 UNK        -0.5577 
     35 CA        -74.1108   27.1340  -79.4709 C.3       7 UNK         0.0284 
     36 CB        -73.8628   26.4858  -80.8470 C.3       7 UNK        -0.1958 
     37 N         -74.7036   26.1706  -78.5239 N.am      7 UNK        -0.4454 
     38 C         -74.1906   25.0229  -78.0534 C.2       7 UNK         0.5089 
     39 O         -73.0853   24.5894  -78.3812 O.2       7 UNK        -0.5125 
     40 CA        -75.0275   24.2559  -77.0118 C.3       6 UNK         0.0408 
     41 CB        -74.1539   23.3610  -76.1091 C.3       6 UNK        -0.1791 
     42 N         -75.8985   25.1102  -76.1962 N.am      6 UNK        -0.4762 
     43 C         -75.5439   26.1057  -75.3662 C.2       6 UNK         0.5007 
     44 O         -74.3883   26.5110  -75.2108 O.2       6 UNK        -0.5032 
     45 CA        -76.6939   26.7326  -74.5531 C.3       5 UNK         0.0783 
     46 C46       -77.5552   27.6904  -75.4144 C.3       11 UNK        -0.0857 
     47 S47       -76.6630   29.2157  -75.8696 S.3       11 UNK        -0.2512 
     48 C48       -77.4679   30.4756  -74.8282 C.3       11 UNK         0.0225 
     49 N         -77.4998   25.6658  -73.9510 N.am      5 UNK        -0.4615 
     50 C         -77.1432   24.9811  -72.8536 C.2       4 UNK         0.5053 
     51 O         -76.1813   25.2821  -72.1500 O.2       4 UNK        -0.5105 
     52 CA        -77.9700   23.7382  -72.4780 C.3       4 UNK         0.0263 
     53 CB        -78.9314   24.0358  -71.3164 C.3       4 UNK        -0.1981 
     54 N         -78.7151   23.1948  -73.6172 N.am      4 UNK        -0.4224 
     55 C         -78.1844   22.3488  -74.5142 C.2       3 UNK         0.4895 
     56 O         -77.0562   21.8683  -74.4103 O.2       3 UNK        -0.5091 
     57 CA        -79.0316   21.9723  -75.7450 C.3       3 UNK         0.0250 
     58 CB        -79.7002   20.6038  -75.5366 C.3       3 UNK        -0.1996 
     59 N         -80.0558   22.9560  -76.1066 N.am      3 UNK        -0.4254 
     60 C         -79.8201   24.2208  -76.4802 C.2       2 UNK         0.5004 
     61 O         -78.6912   24.7083  -76.5545 O.2       2 UNK        -0.5226 
     62 CA        -81.0415   25.1182  -76.7604 C.3       2 UNK         0.0269 
     63 CB        -82.3815   24.3521  -76.8432 C.3       2 UNK        -0.1926 
     64 N         -81.1579   26.2145  -75.7896 N.am      2 UNK        -0.4687 
     65 C         -81.1533   26.1206  -74.4512 C.2       1 UNK         0.5165 
     66 O         -81.0069   25.0589  -73.8419 O.2       1 UNK        -0.5079 
     67 H67       -84.9192   29.9031  -74.9151 H         1 UNK         0.0900 
     68 H68       -85.2441   28.5114  -73.8798 H         1 UNK         0.0900 
     69 H69       -85.3051   28.3376  -75.6353 H         1 UNK         0.0900 
     70 H70       -83.3753   27.6234  -73.0165 H         1 UNK         0.2959 
     71 H71       -80.7527   28.1902  -74.1410 H         1 UNK         0.1079 
     72 H72       -81.5102   26.5337  -71.6751 H         1 UNK         0.0837 
     73 H73       -79.8942   27.0151  -72.1366 H         1 UNK         0.0837 
     74 H74       -79.3064   28.0583  -69.9238 H         1 UNK         0.0685 
     75 H75       -79.6709   29.7298  -69.5777 H         1 UNK         0.0685 
     76 H76       -79.4030   29.6815  -73.1172 H         1 UNK         0.1434 
     77 H77       -75.2521   30.6586  -73.2545 H         1 UNK         0.1329 
     78 H78       -77.0184   29.4067  -69.5571 H         1 UNK         0.1335 
     79 H79       -73.8935   30.5909  -71.3355 H         1 UNK         0.0680 
     80 H80       -74.7577   31.0347  -69.8935 H         1 UNK         0.0680 
     81 H81       -74.2283   26.5195  -70.5350 H         1 UNK         0.1032 
     82 H82       -74.9772   27.5726  -71.6758 H         1 UNK         0.1032 
     83 H83       -71.9797   27.8708  -71.4299 H         1 UNK         0.0461 
     84 H84       -72.0433   24.4339  -73.4978 H         1 UNK         0.3453 
     85 H85       -72.8455   25.8400  -74.1572 H         1 UNK         0.3453 
     86 H86       -73.5725   27.6261  -73.9252 H         1 UNK         0.2984 
     87 H87       -73.9766   29.7566  -75.0055 H         1 UNK         0.0554 
     88 H88       -72.9965   31.9442  -74.4559 H         1 UNK         0.0847 
     89 H89       -72.8374   31.6312  -76.1771 H         1 UNK         0.0847 
     90 H90       -71.4412   31.4686  -75.1128 H         1 UNK         0.0847 
     91 H91       -73.0794   28.3681  -76.4598 H         1 UNK         0.3141 
     92 H92       -70.2176   28.1736  -78.2213 H         1 UNK         0.0743 
     93 H93       -69.1319   26.8085  -76.4287 H         1 UNK         0.0784 
     94 H94       -70.6466   25.9677  -76.1277 H         1 UNK         0.0784 
     95 H95       -69.8132   25.7714  -77.6700 H         1 UNK         0.0784 
     96 H96       -72.2855   26.2129  -77.9621 H         1 UNK         0.3213 
     97 H97       -74.8663   27.9097  -79.6073 H         1 UNK         0.0855 
     98 H98       -73.0971   25.7109  -80.8030 H         1 UNK         0.0814 
     99 H99       -73.5268   27.2294  -81.5710 H         1 UNK         0.0814 
    100 H100      -74.7731   26.0364  -81.2439 H         1 UNK         0.0814 
    101 H101      -75.6044   26.4387  -78.1521 H         1 UNK         0.3105 
    102 H102      -75.6939   23.6037  -77.5778 H         1 UNK         0.0547 
    103 H103      -73.6447   22.5937  -76.6934 H         1 UNK         0.0837 
    104 H104      -73.3864   23.9368  -75.5936 H         1 UNK         0.0837 
    105 H105      -74.7506   22.8486  -75.3555 H         1 UNK         0.0837 
    106 H106      -76.8936   24.9037  -76.2781 H         1 UNK         0.3020 
    107 H107      -76.2487   27.3178  -73.7452 H         1 UNK         0.1245 
    108 H108      -78.4605   27.9624  -74.8736 H         1 UNK         0.0781 
    109 H109      -77.8979   27.2067  -76.3302 H         1 UNK         0.0781 
    110 H110      -77.0141   31.4456  -75.0362 H         1 UNK         0.0836 
    111 H111      -78.5158   30.5633  -75.1199 H         1 UNK         0.0836 
    112 H112      -78.2597   25.3087  -74.5149 H         1 UNK         0.3022 
    113 H113      -77.2625   22.9849  -72.1241 H         1 UNK         0.0747 
    114 H114      -78.3967   24.4573  -70.4641 H         1 UNK         0.0793 
    115 H115      -79.4234   23.1264  -70.9715 H         1 UNK         0.0793 
    116 H116      -79.7070   24.7447  -71.5969 H         1 UNK         0.0793 
    117 H117      -79.6476   23.5682  -73.7704 H         1 UNK         0.3047 
    118 H118      -78.3451   21.8919  -76.5907 H         1 UNK         0.0822 
    119 H119      -78.9595   19.8396  -75.2959 H         1 UNK         0.0807 
    120 H120      -80.2208   20.2740  -76.4360 H         1 UNK         0.0807 
    121 H121      -80.4214   20.6273  -74.7186 H         1 UNK         0.0807 
    122 H122      -81.0167   22.6534  -76.0379 H         1 UNK         0.2946 
    123 H123      -80.8584   25.5756  -77.7342 H         1 UNK         0.1144 
    124 H124      -82.3411   23.5590  -77.5914 H         1 UNK         0.0793 
    125 H125      -83.1913   25.0204  -77.1366 H         1 UNK         0.0793 
    126 H126      -82.6619   23.9027  -75.8896 H         1 UNK         0.0793 
    127 H127      -81.3374   27.1328  -76.1824 H         1 UNK         0.2896 
@<TRIPOS>BOND
     1    1    2 1    
     2    1   67 1    
     3    1   68 1    
     4    1   69 1    
     5    2    3 2    
     6    2    4 am   BACKBONE|DICT|INTERRES
     7    4    5 1    
     8    4   70 1    
     9    5    6 1    
    10    5   65 1    
    11    5   71 1    
    12    6    7 1    
    13    6   72 1    
    14    6   73 1    
    15    7    8 1    
    16    8    9 1    
    17    8   74 1    
    18    8   75 1    
    19    9   10 ar   
    20    9   14 ar   
    21   10   11 ar   
    22   10   76 1    
    23   11   12 ar   
    24   11   48 1    
    25   12   13 ar   
    26   12   77 1    
    27   13   14 ar   
    28   13   15 1    
    29   14   78 1    
    30   15   16 1    
    31   15   79 1    
    32   15   80 1    
    33   16   17 1    
    34   17   18 1    
    35   17   81 1    
    36   17   82 1    
    37   18   19 1    
    38   18   22 1    
    39   18   83 1    
    40   19   20 am   BACKBONE|DICT|INTERRES
    41   19   21 2    
    42   20   84 1    
    43   20   85 1    
    44   22   23 am   BACKBONE|DICT|INTERRES
    45   22   86 1    
    46   23   24 2    
    47   23   25 1    
    48   25   26 1    
    49   25   27 1    
    50   25   87 1    
    51   26   88 1    
    52   26   89 1    
    53   26   90 1    
    54   27   28 am   BACKBONE|DICT|INTERRES
    55   27   91 1    
    56   28   29 2    
    57   28   30 1    
    58   30   31 1    
    59   30   32 1    
    60   30   92 1    
    61   31   93 1    
    62   31   94 1    
    63   31   95 1    
    64   32   33 am   BACKBONE|DICT|INTERRES
    65   32   96 1    
    66   33   34 2    
    67   33   35 1    
    68   35   36 1    
    69   35   37 1    
    70   35   97 1    
    71   36   98 1    
    72   36   99 1    
    73   36  100 1    
    74   37   38 am   BACKBONE|DICT|INTERRES
    75   37  101 1    
    76   38   39 2    
    77   38   40 1    
    78   40   41 1    
    79   40   42 1    
    80   40  102 1    
    81   41  103 1    
    82   41  104 1    
    83   41  105 1    
    84   42   43 am   BACKBONE|DICT|INTERRES
    85   42  106 1    
    86   43   44 2    
    87   43   45 1    
    88   45   46 1    
    89   45   49 1    
    90   45  107 1    
    91   46   47 1    
    92   46  108 1    
    93   46  109 1    
    94   47   48 1    
    95   48  110 1    
    96   48  111 1    
    97   49   50 am   BACKBONE|DICT|INTERRES
    98   49  112 1    
    99   50   51 2    
   100   50   52 1    
   101   52   53 1    
   102   52   54 1    
   103   52  113 1    
   104   53  114 1    
   105   53  115 1    
   106   53  116 1    
   107   54   55 am   BACKBONE|DICT|INTERRES
   108   54  117 1    
   109   55   56 2    
   110   55   57 1    
   111   57   58 1    
   112   57   59 1    
   113   57  118 1    
   114   58  119 1    
   115   58  120 1    
   116   58  121 1    
   117   59   60 am   BACKBONE|DICT|INTERRES
   118   59  122 1    
   119   60   61 2    
   120   60   62 1    
   121   62   63 1    
   122   62   64 1    
   123   62  123 1    
   124   63  124 1    
   125   63  125 1    
   126   63  126 1    
   127   64   65 am   BACKBONE|DICT|INTERRES
   128   64  127 1    
   129   65   66 2    
@<TRIPOS>SUBSTRUCTURE
     1 UNK         1 GROUP             0       ****    0 ROOT    
