@<TRIPOS>MOLECULE
3R135
127   129    1
SMALL
USER_CHARGES


@<TRIPOS>ATOM
      1 CA        -79.9379   31.7682  -74.7774 C.3       0 UNK        -0.1998 
      2 C         -79.4116   30.3916  -74.4037 C.2       0 UNK         0.4909 
      3 O         -78.1978   30.1952  -74.3463 O.2       0 UNK        -0.5240 
      4 N         -80.3123   29.4318  -74.1566 N.am      1 UNK        -0.4739 
      5 CA        -80.0052   28.0566  -73.7389 C.3       1 UNK         0.0864 
      6 C6        -81.1768   27.4119  -72.9471 C.3       11 UNK        -0.0881 
      7 S7        -81.8217   28.4638  -71.6001 S.3       11 UNK        -0.2682 
      8 C8        -80.8671   27.8741  -70.1646 C.3       11 UNK         0.0289 
      9 C9        -79.3710   28.1252  -70.3092 C.ar      11 UNK        -0.0687 
     10 C10       -78.4673   27.0674  -70.1884 C.ar      11 UNK        -0.0823 
     11 C11       -77.0923   27.2923  -70.2981 C.ar      11 UNK        -0.0830 
     12 C12       -76.6231   28.5874  -70.5455 C.ar      11 UNK        -0.1021 
     13 C13       -77.5174   29.6582  -70.6904 C.ar      11 UNK        -0.0753 
     14 C14       -78.8871   29.4144  -70.5518 C.ar      11 UNK        -0.0933 
     15 C15       -77.0777   31.0967  -70.9779 C.3       11 UNK         0.0166 
     16 S16       -75.3030   31.3594  -71.3150 S.3       11 UNK        -0.2615 
     17 C17       -75.1463   30.7069  -73.0135 C.3       11 UNK        -0.0865 
     18 CA        -73.6691   30.4021  -73.3812 C.3       10 UNK         0.0862 
     19 C         -73.2111   29.0214  -72.8323 C.2       10 UNK         0.5551 
     20 N         -73.2585   27.9550  -73.6189 N.am      10 UNK        -0.7319 
     21 O         -72.7876   28.9226  -71.6834 O.2       10 UNK        -0.5018 
     22 N         -73.4040   30.6082  -74.8149 N.am      10 UNK        -0.4509 
     23 C         -72.1771   30.7171  -75.3421 C.2       10 UNK         0.4899 
     24 O         -71.1411   30.6524  -74.6778 O.2       10 UNK        -0.4839 
     25 CA        -72.0945   30.9501  -76.8629 C.3       9 UNK         0.0222 
     26 CB        -70.6444   31.0887  -77.3655 C.3       9 UNK        -0.1966 
     27 N         -72.7500   29.8773  -77.6100 N.am      9 UNK        -0.4218 
     28 C         -74.0604   29.8059  -77.8740 C.2       9 UNK         0.5020 
     29 O         -74.8814   30.6430  -77.4971 O.2       9 UNK        -0.5274 
     30 CA        -74.5349   28.5833  -78.6780 C.3       8 UNK         0.0270 
     31 CB        -74.4179   28.8529  -80.1869 C.3       8 UNK        -0.1976 
     32 N         -73.8223   27.3437  -78.3445 N.am      8 UNK        -0.4313 
     33 C         -73.8358   26.7521  -77.1423 C.2       8 UNK         0.5041 
     34 O         -74.4329   27.1983  -76.1611 O.2       8 UNK        -0.5577 
     35 CA        -73.0349   25.4560  -77.0015 C.3       7 UNK         0.0284 
     36 CB        -71.8174   25.6596  -76.0789 C.3       7 UNK        -0.1958 
     37 N         -73.9235   24.4214  -76.4793 N.am      7 UNK        -0.4454 
     38 C         -73.6711   23.1059  -76.4860 C.2       7 UNK         0.5089 
     39 O         -72.6238   22.6176  -76.9144 O.2       7 UNK        -0.5125 
     40 CA        -74.7837   22.1744  -75.9650 C.3       6 UNK         0.0408 
     41 CB        -74.2541   20.8224  -75.4416 C.3       6 UNK        -0.1791 
     42 N         -75.6708   22.8255  -74.9976 N.am      6 UNK        -0.4762 
     43 C         -75.4089   23.2071  -73.7377 C.2       6 UNK         0.5007 
     44 O         -74.3548   22.9585  -73.1525 O.2       6 UNK        -0.5032 
     45 CA        -76.5242   23.9949  -73.0079 C.3       5 UNK         0.0783 
     46 C46       -76.1944   25.5048  -72.8947 C.3       11 UNK        -0.0857 
     47 S47       -75.0223   25.8745  -71.5475 S.3       11 UNK        -0.2512 
     48 C48       -76.1192   26.1335  -70.1159 C.3       11 UNK         0.0225 
     49 N         -77.8226   23.8080  -73.6635 N.am      5 UNK        -0.4615 
     50 C         -78.6703   22.8007  -73.4175 C.2       4 UNK         0.5053 
     51 O         -78.5038   21.9709  -72.5239 O.2       4 UNK        -0.5105 
     52 CA        -79.9037   22.6847  -74.3318 C.3       4 UNK         0.0263 
     53 CB        -81.1370   23.3167  -73.6695 C.3       4 UNK        -0.1981 
     54 N         -79.6856   23.2903  -75.6503 N.am      4 UNK        -0.4224 
     55 C         -78.9774   22.7032  -76.6278 C.2       3 UNK         0.4895 
     56 O         -78.4993   21.5728  -76.5359 O.2       3 UNK        -0.5091 
     57 CA        -78.7205   23.5093  -77.9142 C.3       3 UNK         0.0250 
     58 CB        -79.7795   23.1751  -78.9766 C.3       3 UNK        -0.1996 
     59 N         -78.6711   24.9610  -77.7218 N.am      3 UNK        -0.4254 
     60 C         -77.7970   25.6132  -76.9431 C.2       2 UNK         0.5004 
     61 O         -76.9311   25.0512  -76.2742 O.2       2 UNK        -0.5226 
     62 CA        -77.9233   27.1438  -76.8677 C.3       2 UNK         0.0269 
     63 CB        -78.7041   27.7662  -78.0453 C.3       2 UNK        -0.1926 
     64 N         -78.4775   27.6231  -75.5993 N.am      2 UNK        -0.4687 
     65 C         -79.5716   27.2013  -74.9509 C.2       1 UNK         0.5165 
     66 O         -80.2409   26.2243  -75.2953 O.2       1 UNK        -0.5079 
     67 H67       -79.5791   32.5107  -74.0652 H         1 UNK         0.0900 
     68 H68       -79.5837   32.0476  -75.7693 H         1 UNK         0.0900 
     69 H69       -81.0272   31.8008  -74.7826 H         1 UNK         0.0900 
     70 H70       -81.2965   29.6466  -74.2287 H         1 UNK         0.2959 
     71 H71       -79.1409   28.0914  -73.0729 H         1 UNK         0.1079 
     72 H72       -82.0145   27.1924  -73.6120 H         1 UNK         0.0837 
     73 H73       -80.8646   26.4562  -72.5248 H         1 UNK         0.0837 
     74 H74       -81.0758   26.8139  -70.0124 H         1 UNK         0.0685 
     75 H75       -81.2236   28.3888  -69.2715 H         1 UNK         0.0685 
     76 H76       -78.8346   26.0689  -69.9940 H         1 UNK         0.1434 
     77 H77       -75.5569   28.7443  -70.6264 H         1 UNK         0.1329 
     78 H78       -79.5876   30.2329  -70.6487 H         1 UNK         0.1335 
     79 H79       -77.3463   31.7109  -70.1175 H         1 UNK         0.0680 
     80 H80       -77.6491   31.4850  -71.8226 H         1 UNK         0.0680 
     81 H81       -75.5605   31.4623  -73.6833 H         1 UNK         0.1032 
     82 H82       -75.7765   29.8238  -73.1406 H         1 UNK         0.1032 
     83 H83       -73.0512   31.1461  -72.8734 H         1 UNK         0.0461 
     84 H84       -72.9826   27.0682  -73.2318 H         1 UNK         0.3453 
     85 H85       -73.6587   27.9880  -74.5513 H         1 UNK         0.3453 
     86 H86       -74.2010   30.6364  -75.4397 H         1 UNK         0.2984 
     87 H87       -72.6040   31.8934  -77.0712 H         1 UNK         0.0554 
     88 H88       -70.1328   31.9100  -76.8617 H         1 UNK         0.0847 
     89 H89       -70.6130   31.2998  -78.4346 H         1 UNK         0.0847 
     90 H90       -70.0637   30.1832  -77.1846 H         1 UNK         0.0847 
     91 H91       -72.1612   29.1199  -77.9240 H         1 UNK         0.3141 
     92 H92       -75.5906   28.4360  -78.4521 H         1 UNK         0.0743 
     93 H93       -74.9562   29.7608  -80.4632 H         1 UNK         0.0784 
     94 H94       -73.3803   28.9827  -80.4976 H         1 UNK         0.0784 
     95 H95       -74.8448   28.0370  -80.7706 H         1 UNK         0.0784 
     96 H96       -73.3044   26.9074  -79.0945 H         1 UNK         0.3213 
     97 H97       -72.6832   25.1463  -77.9880 H         1 UNK         0.0855 
     98 H98       -72.1221   25.8384  -75.0480 H         1 UNK         0.0814 
     99 H99       -71.2185   26.5138  -76.3974 H         1 UNK         0.0814 
    100 H100      -71.1626   24.7884  -76.0832 H         1 UNK         0.0814 
    101 H101      -74.8294   24.7511  -76.1553 H         1 UNK         0.3105 
    102 H102      -75.4127   21.9585  -76.8298 H         1 UNK         0.0547 
    103 H103      -75.0646   20.1949  -75.0712 H         1 UNK         0.0837 
    104 H104      -73.5314   20.9519  -74.6359 H         1 UNK         0.0837 
    105 H105      -73.7534   20.2672  -76.2355 H         1 UNK         0.0837 
    106 H106      -76.5445   23.1546  -75.3888 H         1 UNK         0.3020 
    107 H107      -76.5911   23.5818  -71.9988 H         1 UNK         0.1245 
    108 H108      -77.1038   26.0813  -72.7223 H         1 UNK         0.0781 
    109 H109      -75.7854   25.8922  -73.8307 H         1 UNK         0.0781 
    110 H110      -75.5030   26.3305  -69.2377 H         1 UNK         0.0836 
    111 H111      -76.6515   25.2035  -69.9108 H         1 UNK         0.0836 
    112 H112      -78.0137   24.4252  -74.4420 H         1 UNK         0.3022 
    113 H113      -80.1090   21.6205  -74.4677 H         1 UNK         0.0747 
    114 H114      -82.0282   23.1840  -74.2830 H         1 UNK         0.0793 
    115 H115      -81.3387   22.8578  -72.7006 H         1 UNK         0.0793 
    116 H116      -81.0023   24.3836  -73.5026 H         1 UNK         0.0793 
    117 H117      -80.0208   24.2408  -75.7802 H         1 UNK         0.3047 
    118 H118      -77.7449   23.2005  -78.2960 H         1 UNK         0.0822 
    119 H119      -79.5544   23.6571  -79.9282 H         1 UNK         0.0807 
    120 H120      -80.7765   23.4908  -78.6662 H         1 UNK         0.0807 
    121 H121      -79.8211   22.1008  -79.1625 H         1 UNK         0.0807 
    122 H122      -79.3705   25.5048  -78.2061 H         1 UNK         0.2946 
    123 H123      -76.9042   27.5234  -76.9022 H         1 UNK         0.1144 
    124 H124      -78.3019   27.4403  -79.0058 H         1 UNK         0.0793 
    125 H125      -78.6309   28.8538  -78.0250 H         1 UNK         0.0793 
    126 H126      -79.7642   27.5110  -78.0187 H         1 UNK         0.0793 
    127 H127      -78.0307   28.4531  -75.2175 H         1 UNK         0.2896 
@<TRIPOS>BOND
     1    1    2 1    
     2    1   67 1    
     3    1   68 1    
     4    1   69 1    
     5    2    3 2    
     6    2    4 am   BACKBONE|DICT|INTERRES
     7    4    5 1    
     8    4   70 1    
     9    5    6 1    
    10    5   65 1    
    11    5   71 1    
    12    6    7 1    
    13    6   72 1    
    14    6   73 1    
    15    7    8 1    
    16    8    9 1    
    17    8   74 1    
    18    8   75 1    
    19    9   10 ar   
    20    9   14 ar   
    21   10   11 ar   
    22   10   76 1    
    23   11   12 ar   
    24   11   48 1    
    25   12   13 ar   
    26   12   77 1    
    27   13   14 ar   
    28   13   15 1    
    29   14   78 1    
    30   15   16 1    
    31   15   79 1    
    32   15   80 1    
    33   16   17 1    
    34   17   18 1    
    35   17   81 1    
    36   17   82 1    
    37   18   19 1    
    38   18   22 1    
    39   18   83 1    
    40   19   20 am   BACKBONE|DICT|INTERRES
    41   19   21 2    
    42   20   84 1    
    43   20   85 1    
    44   22   23 am   BACKBONE|DICT|INTERRES
    45   22   86 1    
    46   23   24 2    
    47   23   25 1    
    48   25   26 1    
    49   25   27 1    
    50   25   87 1    
    51   26   88 1    
    52   26   89 1    
    53   26   90 1    
    54   27   28 am   BACKBONE|DICT|INTERRES
    55   27   91 1    
    56   28   29 2    
    57   28   30 1    
    58   30   31 1    
    59   30   32 1    
    60   30   92 1    
    61   31   93 1    
    62   31   94 1    
    63   31   95 1    
    64   32   33 am   BACKBONE|DICT|INTERRES
    65   32   96 1    
    66   33   34 2    
    67   33   35 1    
    68   35   36 1    
    69   35   37 1    
    70   35   97 1    
    71   36   98 1    
    72   36   99 1    
    73   36  100 1    
    74   37   38 am   BACKBONE|DICT|INTERRES
    75   37  101 1    
    76   38   39 2    
    77   38   40 1    
    78   40   41 1    
    79   40   42 1    
    80   40  102 1    
    81   41  103 1    
    82   41  104 1    
    83   41  105 1    
    84   42   43 am   BACKBONE|DICT|INTERRES
    85   42  106 1    
    86   43   44 2    
    87   43   45 1    
    88   45   46 1    
    89   45   49 1    
    90   45  107 1    
    91   46   47 1    
    92   46  108 1    
    93   46  109 1    
    94   47   48 1    
    95   48  110 1    
    96   48  111 1    
    97   49   50 am   BACKBONE|DICT|INTERRES
    98   49  112 1    
    99   50   51 2    
   100   50   52 1    
   101   52   53 1    
   102   52   54 1    
   103   52  113 1    
   104   53  114 1    
   105   53  115 1    
   106   53  116 1    
   107   54   55 am   BACKBONE|DICT|INTERRES
   108   54  117 1    
   109   55   56 2    
   110   55   57 1    
   111   57   58 1    
   112   57   59 1    
   113   57  118 1    
   114   58  119 1    
   115   58  120 1    
   116   58  121 1    
   117   59   60 am   BACKBONE|DICT|INTERRES
   118   59  122 1    
   119   60   61 2    
   120   60   62 1    
   121   62   63 1    
   122   62   64 1    
   123   62  123 1    
   124   63  124 1    
   125   63  125 1    
   126   63  126 1    
   127   64   65 am   BACKBONE|DICT|INTERRES
   128   64  127 1    
   129   65   66 2    
@<TRIPOS>SUBSTRUCTURE
     1 UNK         1 GROUP             0       ****    0 ROOT    
