@<TRIPOS>MOLECULE
3R135
127   129    1
SMALL
USER_CHARGES


@<TRIPOS>ATOM
      1 CA        -84.0345   27.4355  -71.1805 C.3       0 UNK        -0.1998 
      2 C         -83.6949   27.6547  -72.6472 C.2       0 UNK         0.4909 
      3 O         -84.5782   27.5686  -73.5007 O.2       0 UNK        -0.5240 
      4 N         -82.4201   27.9380  -72.9451 N.am      1 UNK        -0.4739 
      5 CA        -81.9101   28.1669  -74.3042 C.3       1 UNK         0.0864 
      6 C6        -80.5462   28.8991  -74.2925 C.3       11 UNK        -0.0881 
      7 S7        -80.6671   30.6086  -73.6645 S.3       11 UNK        -0.2682 
      8 C8        -80.2253   30.4399  -71.9038 C.3       11 UNK         0.0289 
      9 C9        -78.8298   29.8691  -71.6891 C.ar      11 UNK        -0.0687 
     10 C10       -78.6633   28.6408  -71.0398 C.ar      11 UNK        -0.0823 
     11 C11       -77.3839   28.1290  -70.8030 C.ar      11 UNK        -0.0830 
     12 C12       -76.2679   28.8563  -71.2274 C.ar      11 UNK        -0.1021 
     13 C13       -76.4195   30.0739  -71.8950 C.ar      11 UNK        -0.0753 
     14 C14       -77.7035   30.5815  -72.1128 C.ar      11 UNK        -0.0933 
     15 C15       -75.1955   30.8458  -72.3618 C.3       11 UNK         0.0166 
     16 S16       -75.0459   30.8224  -74.1743 S.3       11 UNK        -0.2615 
     17 C17       -73.3829   31.5491  -74.3846 C.3       11 UNK        -0.0865 
     18 CA        -72.4267   30.5964  -75.1536 C.3       10 UNK         0.0862 
     19 C         -71.0554   31.2358  -75.5161 C.2       10 UNK         0.5551 
     20 N         -70.1719   30.4906  -76.1683 N.am      10 UNK        -0.7319 
     21 O         -70.7888   32.3987  -75.2200 O.2       10 UNK        -0.5018 
     22 N         -72.2941   29.2730  -74.5237 N.am      10 UNK        -0.4509 
     23 C         -71.6937   28.9879  -73.3596 C.2       10 UNK         0.4899 
     24 O         -71.1976   29.8319  -72.6131 O.2       10 UNK        -0.4839 
     25 CA        -71.6372   27.5035  -72.9521 C.3       9 UNK         0.0222 
     26 CB        -72.6253   27.2189  -71.8107 C.3       9 UNK        -0.1966 
     27 N         -71.9438   26.6205  -74.0812 N.am      9 UNK        -0.4218 
     28 C         -71.0281   26.1102  -74.9153 C.2       9 UNK         0.5020 
     29 O         -69.8116   26.1988  -74.7427 O.2       9 UNK        -0.5274 
     30 CA        -71.5623   25.4200  -76.1819 C.3       8 UNK         0.0270 
     31 CB        -72.2407   24.0819  -75.8407 C.3       8 UNK        -0.1976 
     32 N         -72.4918   26.2609  -76.9422 N.am      8 UNK        -0.4313 
     33 C         -72.2264   27.4613  -77.4755 C.2       8 UNK         0.5041 
     34 O         -71.1326   28.0200  -77.3920 O.2       8 UNK        -0.5577 
     35 CA        -73.3808   28.1998  -78.1829 C.3       7 UNK         0.0284 
     36 CB        -73.5305   27.7326  -79.6444 C.3       7 UNK        -0.1958 
     37 N         -74.6599   28.1565  -77.4538 N.am      7 UNK        -0.4454 
     38 C         -75.4379   27.0927  -77.2136 C.2       7 UNK         0.5089 
     39 O         -75.2125   25.9616  -77.6493 O.2       7 UNK        -0.5125 
     40 CA        -76.6467   27.3221  -76.2920 C.3       6 UNK         0.0408 
     41 CB        -77.9376   27.4015  -77.1209 C.3       6 UNK        -0.1791 
     42 N         -76.7798   26.2571  -75.2945 N.am      6 UNK        -0.4762 
     43 C         -75.8391   25.9004  -74.4055 C.2       6 UNK         0.5007 
     44 O         -74.7384   26.4480  -74.3190 O.2       6 UNK        -0.5032 
     45 CA        -76.1596   24.7073  -73.4889 C.3       5 UNK         0.0783 
     46 C46       -77.0635   25.1132  -72.2955 C.3       11 UNK        -0.0857 
     47 S47       -76.0777   25.6501  -70.8604 S.3       11 UNK        -0.2512 
     48 C48       -77.2119   26.8187  -70.0419 C.3       11 UNK         0.0225 
     49 N         -76.7526   23.6140  -74.2621 N.am      5 UNK        -0.4615 
     50 C         -76.1521   22.4424  -74.5144 C.2       4 UNK         0.5053 
     51 O         -75.0160   22.1597  -74.1330 O.2       4 UNK        -0.5105 
     52 CA        -76.9487   21.3836  -75.3014 C.3       4 UNK         0.0263 
     53 CB        -77.5373   20.3370  -74.3408 C.3       4 UNK        -0.1981 
     54 N         -78.0313   21.9521  -76.1048 N.am      4 UNK        -0.4224 
     55 C         -77.8555   22.6416  -77.2399 C.2       3 UNK         0.4895 
     56 O         -76.7659   22.7692  -77.7974 O.2       3 UNK        -0.5091 
     57 CA        -79.0990   23.3087  -77.8594 C.3       3 UNK         0.0250 
     58 CB        -79.5916   22.4994  -79.0705 C.3       3 UNK        -0.1996 
     59 N         -80.2241   23.5205  -76.9367 N.am      3 UNK        -0.4254 
     60 C         -80.1932   24.2657  -75.8230 C.2       2 UNK         0.5004 
     61 O         -79.1718   24.7908  -75.3732 O.2       2 UNK        -0.5226 
     62 CA        -81.5113   24.3916  -75.0438 C.3       2 UNK         0.0269 
     63 CB        -81.5744   23.3271  -73.9362 C.3       2 UNK        -0.1926 
     64 N         -81.6608   25.7165  -74.4387 N.am      2 UNK        -0.4687 
     65 C         -81.8124   26.8612  -75.1225 C.2       1 UNK         0.5165 
     66 O         -81.8874   26.9148  -76.3513 O.2       1 UNK        -0.5079 
     67 H67       -84.4348   26.4325  -71.0342 H         1 UNK         0.0900 
     68 H68       -84.7885   28.1537  -70.8594 H         1 UNK         0.0900 
     69 H69       -83.1624   27.5499  -70.5370 H         1 UNK         0.0900 
     70 H70       -81.7395   28.0029  -72.2037 H         1 UNK         0.2959 
     71 H71       -82.6278   28.8026  -74.8284 H         1 UNK         0.1079 
     72 H72       -79.7979   28.3331  -73.7354 H         1 UNK         0.0837 
     73 H73       -80.1575   28.9836  -75.3085 H         1 UNK         0.0837 
     74 H74       -80.2748   31.4258  -71.4396 H         1 UNK         0.0685 
     75 H75       -80.9790   29.8344  -71.3997 H         1 UNK         0.0685 
     76 H76       -79.5301   28.0920  -70.6985 H         1 UNK         0.1434 
     77 H77       -75.2780   28.4734  -71.0291 H         1 UNK         0.1329 
     78 H78       -77.8267   31.5293  -72.6192 H         1 UNK         0.1335 
     79 H79       -75.2590   31.8787  -72.0163 H         1 UNK         0.0680 
     80 H80       -74.2899   30.4238  -71.9221 H         1 UNK         0.0680 
     81 H81       -72.9560   31.8161  -73.4164 H         1 UNK         0.1032 
     82 H82       -73.4995   32.4881  -74.9286 H         1 UNK         0.1032 
     83 H83       -72.8992   30.4117  -76.1179 H         1 UNK         0.0461 
     84 H84       -69.2770   30.8834  -76.4123 H         1 UNK         0.3453 
     85 H85       -70.4126   29.5502  -76.4722 H         1 UNK         0.3453 
     86 H86       -72.6599   28.4986  -75.0541 H         1 UNK         0.2984 
     87 H87       -70.6296   27.3005  -72.5838 H         1 UNK         0.0554 
     88 H88       -72.5547   26.1854  -71.4716 H         1 UNK         0.0847 
     89 H89       -73.6532   27.3959  -72.1234 H         1 UNK         0.0847 
     90 H90       -72.4291   27.8588  -70.9495 H         1 UNK         0.0847 
     91 H91       -72.9348   26.4806  -74.2808 H         1 UNK         0.3141 
     92 H92       -70.7080   25.2125  -76.8296 H         1 UNK         0.0743 
     93 H93       -73.1411   24.2214  -75.2409 H         1 UNK         0.0784 
     94 H94       -72.5253   23.5408  -76.7434 H         1 UNK         0.0784 
     95 H95       -71.5689   23.4353  -75.2745 H         1 UNK         0.0784 
     96 H96       -73.4347   25.9021  -77.0809 H         1 UNK         0.3213 
     97 H97       -73.0993   29.2535  -78.2173 H         1 UNK         0.0855 
     98 H98       -72.6032   27.8906  -80.1968 H         1 UNK         0.0814 
     99 H99       -74.3131   28.2888  -80.1604 H         1 UNK         0.0814 
    100 H100      -73.7695   26.6712  -79.7173 H         1 UNK         0.0814 
    101 H101      -74.9379   29.0319  -77.0305 H         1 UNK         0.3105 
    102 H102      -76.5174   28.2612  -75.7495 H         1 UNK         0.0547 
    103 H103      -77.9203   28.2613  -77.7916 H         1 UNK         0.0837 
    104 H104      -78.0739   26.5111  -77.7349 H         1 UNK         0.0837 
    105 H105      -78.8167   27.4987  -76.4858 H         1 UNK         0.0837 
    106 H106      -77.6524   25.7324  -75.3178 H         1 UNK         0.3020 
    107 H107      -75.1999   24.3714  -73.0887 H         1 UNK         0.1245 
    108 H108      -77.6554   24.2596  -71.9605 H         1 UNK         0.0781 
    109 H109      -77.7881   25.8812  -72.5754 H         1 UNK         0.0781 
    110 H110      -76.8195   27.0459  -69.0499 H         1 UNK         0.0836 
    111 H111      -78.1726   26.3255  -69.8856 H         1 UNK         0.0836 
    112 H112      -77.6705   23.7963  -74.6552 H         1 UNK         0.3022 
    113 H113      -76.2498   20.8781  -75.9715 H         1 UNK         0.0747 
    114 H114      -78.0464   19.5406  -74.8841 H         1 UNK         0.0793 
    115 H115      -76.7520   19.8690  -73.7452 H         1 UNK         0.0793 
    116 H116      -78.2513   20.7815  -73.6461 H         1 UNK         0.0793 
    117 H117      -78.9660   21.8791  -75.7312 H         1 UNK         0.3047 
    118 H118      -78.7829   24.2909  -78.2149 H         1 UNK         0.0822 
    119 H119      -80.4006   23.0130  -79.5906 H         1 UNK         0.0807 
    120 H120      -79.9516   21.5124  -78.7770 H         1 UNK         0.0807 
    121 H121      -78.7891   22.3508  -79.7948 H         1 UNK         0.0807 
    122 H122      -81.1024   23.1035  -77.2114 H         1 UNK         0.2946 
    123 H123      -82.3464   24.2398  -75.7320 H         1 UNK         0.1144 
    124 H124      -81.5041   22.3213  -74.3527 H         1 UNK         0.0793 
    125 H125      -82.5144   23.3815  -73.3865 H         1 UNK         0.0793 
    126 H126      -80.7595   23.4412  -73.2194 H         1 UNK         0.0793 
    127 H127      -81.5968   25.7682  -73.4331 H         1 UNK         0.2896 
@<TRIPOS>BOND
     1    1    2 1    
     2    1   67 1    
     3    1   68 1    
     4    1   69 1    
     5    2    3 2    
     6    2    4 am   BACKBONE|DICT|INTERRES
     7    4    5 1    
     8    4   70 1    
     9    5    6 1    
    10    5   65 1    
    11    5   71 1    
    12    6    7 1    
    13    6   72 1    
    14    6   73 1    
    15    7    8 1    
    16    8    9 1    
    17    8   74 1    
    18    8   75 1    
    19    9   10 ar   
    20    9   14 ar   
    21   10   11 ar   
    22   10   76 1    
    23   11   12 ar   
    24   11   48 1    
    25   12   13 ar   
    26   12   77 1    
    27   13   14 ar   
    28   13   15 1    
    29   14   78 1    
    30   15   16 1    
    31   15   79 1    
    32   15   80 1    
    33   16   17 1    
    34   17   18 1    
    35   17   81 1    
    36   17   82 1    
    37   18   19 1    
    38   18   22 1    
    39   18   83 1    
    40   19   20 am   BACKBONE|DICT|INTERRES
    41   19   21 2    
    42   20   84 1    
    43   20   85 1    
    44   22   23 am   BACKBONE|DICT|INTERRES
    45   22   86 1    
    46   23   24 2    
    47   23   25 1    
    48   25   26 1    
    49   25   27 1    
    50   25   87 1    
    51   26   88 1    
    52   26   89 1    
    53   26   90 1    
    54   27   28 am   BACKBONE|DICT|INTERRES
    55   27   91 1    
    56   28   29 2    
    57   28   30 1    
    58   30   31 1    
    59   30   32 1    
    60   30   92 1    
    61   31   93 1    
    62   31   94 1    
    63   31   95 1    
    64   32   33 am   BACKBONE|DICT|INTERRES
    65   32   96 1    
    66   33   34 2    
    67   33   35 1    
    68   35   36 1    
    69   35   37 1    
    70   35   97 1    
    71   36   98 1    
    72   36   99 1    
    73   36  100 1    
    74   37   38 am   BACKBONE|DICT|INTERRES
    75   37  101 1    
    76   38   39 2    
    77   38   40 1    
    78   40   41 1    
    79   40   42 1    
    80   40  102 1    
    81   41  103 1    
    82   41  104 1    
    83   41  105 1    
    84   42   43 am   BACKBONE|DICT|INTERRES
    85   42  106 1    
    86   43   44 2    
    87   43   45 1    
    88   45   46 1    
    89   45   49 1    
    90   45  107 1    
    91   46   47 1    
    92   46  108 1    
    93   46  109 1    
    94   47   48 1    
    95   48  110 1    
    96   48  111 1    
    97   49   50 am   BACKBONE|DICT|INTERRES
    98   49  112 1    
    99   50   51 2    
   100   50   52 1    
   101   52   53 1    
   102   52   54 1    
   103   52  113 1    
   104   53  114 1    
   105   53  115 1    
   106   53  116 1    
   107   54   55 am   BACKBONE|DICT|INTERRES
   108   54  117 1    
   109   55   56 2    
   110   55   57 1    
   111   57   58 1    
   112   57   59 1    
   113   57  118 1    
   114   58  119 1    
   115   58  120 1    
   116   58  121 1    
   117   59   60 am   BACKBONE|DICT|INTERRES
   118   59  122 1    
   119   60   61 2    
   120   60   62 1    
   121   62   63 1    
   122   62   64 1    
   123   62  123 1    
   124   63  124 1    
   125   63  125 1    
   126   63  126 1    
   127   64   65 am   BACKBONE|DICT|INTERRES
   128   64  127 1    
   129   65   66 2    
@<TRIPOS>SUBSTRUCTURE
     1 UNK         1 GROUP             0       ****    0 ROOT    
