@<TRIPOS>MOLECULE
3R135
127   129    1
SMALL
USER_CHARGES


@<TRIPOS>ATOM
      1 CA        -84.1148   25.5389  -73.5948 C.3       0 UNK        -0.1998 
      2 C         -83.2554   26.7824  -73.4210 C.2       0 UNK         0.4909 
      3 O         -83.7889   27.8753  -73.2292 O.2       0 UNK        -0.5240 
      4 N         -81.9305   26.6221  -73.4890 N.am      1 UNK        -0.4739 
      5 CA        -80.9377   27.6893  -73.3907 C.3       1 UNK         0.0864 
      6 C6        -80.4025   27.8227  -71.9449 C.3       11 UNK        -0.0881 
      7 S7        -79.6046   29.4300  -71.6357 S.3       11 UNK        -0.2682 
      8 C8        -78.8702   29.1370  -69.9966 C.3       11 UNK         0.0289 
      9 C9        -77.4339   28.6466  -70.1041 C.ar      11 UNK        -0.0687 
     10 C10       -77.1492   27.2823  -70.2120 C.ar      11 UNK        -0.0823 
     11 C11       -75.8253   26.8382  -70.2901 C.ar      11 UNK        -0.0830 
     12 C12       -74.7834   27.7718  -70.2732 C.ar      11 UNK        -0.1021 
     13 C13       -75.0532   29.1401  -70.1642 C.ar      11 UNK        -0.0753 
     14 C14       -76.3828   29.5664  -70.0677 C.ar      11 UNK        -0.0933 
     15 C15       -73.9031   30.1426  -70.1041 C.3       11 UNK         0.0166 
     16 S16       -74.1785   31.6384  -71.1154 S.3       11 UNK        -0.2615 
     17 C17       -73.9503   31.0033  -72.8104 C.3       11 UNK        -0.0865 
     18 CA        -75.2670   30.5062  -73.4686 C.3       10 UNK         0.0862 
     19 C         -76.2748   31.6478  -73.7861 C.2       10 UNK         0.5551 
     20 N         -77.5517   31.4465  -73.4904 N.am      10 UNK        -0.7319 
     21 O         -75.9134   32.7202  -74.2646 O.2       10 UNK        -0.5018 
     22 N         -74.9840   29.6244  -74.6091 N.am      10 UNK        -0.4509 
     23 C         -74.4443   29.9596  -75.7908 C.2       10 UNK         0.4899 
     24 O         -74.2089   31.1102  -76.1590 O.2       10 UNK        -0.4839 
     25 CA        -74.0376   28.7668  -76.6776 C.3       9 UNK         0.0222 
     26 CB        -73.3462   29.1802  -77.9932 C.3       9 UNK        -0.1966 
     27 N         -73.2151   27.8133  -75.9237 N.am      9 UNK        -0.4218 
     28 C         -72.0446   28.0508  -75.3063 C.2       9 UNK         0.5020 
     29 O         -71.4084   29.1011  -75.3972 O.2       9 UNK        -0.5274 
     30 CA        -71.5053   26.9355  -74.4001 C.3       8 UNK         0.0270 
     31 CB        -72.1619   27.0259  -73.0121 C.3       8 UNK        -0.1976 
     32 N         -71.7504   25.6121  -74.9756 N.am      8 UNK        -0.4313 
     33 C         -70.8572   24.9296  -75.7062 C.2       8 UNK         0.5041 
     34 O         -69.7053   25.3120  -75.9174 O.2       8 UNK        -0.5577 
     35 CA        -71.3206   23.5911  -76.3104 C.3       7 UNK         0.0284 
     36 CB        -71.0402   22.4352  -75.3364 C.3       7 UNK        -0.1958 
     37 N         -72.7392   23.5879  -76.6719 N.am      7 UNK        -0.4454 
     38 C         -73.2780   24.3194  -77.6576 C.2       7 UNK         0.5089 
     39 O         -72.6206   25.0062  -78.4394 O.2       7 UNK        -0.5125 
     40 CA        -74.8123   24.3044  -77.7775 C.3       6 UNK         0.0408 
     41 CB        -75.2621   23.3568  -78.9000 C.3       6 UNK        -0.1791 
     42 N         -75.5157   23.9486  -76.5396 N.am      6 UNK        -0.4762 
     43 C         -75.4955   24.6520  -75.3986 C.2       6 UNK         0.5007 
     44 O         -74.7869   25.6477  -75.2378 O.2       6 UNK        -0.5032 
     45 CA        -76.4208   24.1586  -74.2633 C.3       5 UNK         0.0783 
     46 C46       -76.4126   25.0808  -73.0155 C.3       11 UNK        -0.0857 
     47 S47       -74.9300   24.8206  -71.9862 S.3       11 UNK        -0.2512 
     48 C48       -75.5181   25.3473  -70.3472 C.3       11 UNK         0.0225 
     49 N         -77.7842   23.9700  -74.7603 N.am      5 UNK        -0.4615 
     50 C         -78.2477   22.8910  -75.4027 C.2       4 UNK         0.5053 
     51 O         -77.5599   21.9022  -75.6563 O.2       4 UNK        -0.5105 
     52 CA        -79.7020   22.9535  -75.8846 C.3       4 UNK         0.0263 
     53 CB        -80.6780   22.8322  -74.7016 C.3       4 UNK        -0.1981 
     54 N         -79.9445   24.2083  -76.5967 N.am      4 UNK        -0.4224 
     55 C         -79.8508   24.3637  -77.9248 C.2       3 UNK         0.4895 
     56 O         -79.6076   23.4457  -78.7086 O.2       3 UNK        -0.5091 
     57 CA        -80.0755   25.7820  -78.4824 C.3       3 UNK         0.0250 
     58 CB        -81.5461   25.9700  -78.8892 C.3       3 UNK        -0.1996 
     59 N         -79.6973   26.8408  -77.5428 N.am      3 UNK        -0.4254 
     60 C         -78.4347   27.1383  -77.2048 C.2       2 UNK         0.5004 
     61 O         -77.4492   26.6061  -77.7113 O.2       2 UNK        -0.5226 
     62 CA        -78.2292   28.2030  -76.1111 C.3       2 UNK         0.0269 
     63 CB        -77.9720   29.5697  -76.7668 C.3       2 UNK        -0.1926 
     64 N         -79.3272   28.3326  -75.1398 N.am      2 UNK        -0.4687 
     65 C         -79.8198   27.3413  -74.3829 C.2       1 UNK         0.5165 
     66 O         -79.4391   26.1704  -74.4575 O.2       1 UNK        -0.5079 
     67 H67       -84.7773   25.6575  -74.4519 H         1 UNK         0.0900 
     68 H68       -84.7288   25.3808  -72.7085 H         1 UNK         0.0900 
     69 H69       -83.5122   24.6445  -73.7533 H         1 UNK         0.0900 
     70 H70       -81.5342   25.7111  -73.6775 H         1 UNK         0.2959 
     71 H71       -81.3955   28.6320  -73.7002 H         1 UNK         0.1079 
     72 H72       -81.2291   27.7402  -71.2372 H         1 UNK         0.0837 
     73 H73       -79.7185   27.0082  -71.7011 H         1 UNK         0.0837 
     74 H74       -78.9005   30.0702  -69.4320 H         1 UNK         0.0685 
     75 H75       -79.4756   28.4260  -69.4321 H         1 UNK         0.0685 
     76 H76       -77.9573   26.5645  -70.2176 H         1 UNK         0.1434 
     77 H77       -73.7601   27.4262  -70.3297 H         1 UNK         0.1329 
     78 H78       -76.6022   30.6207  -69.9686 H         1 UNK         0.1335 
     79 H79       -73.7733   30.4490  -69.0655 H         1 UNK         0.0680 
     80 H80       -72.9635   29.6771  -70.4058 H         1 UNK         0.0680 
     81 H81       -73.2196   30.1939  -72.7767 H         1 UNK         0.1032 
     82 H82       -73.4901   31.7839  -73.4190 H         1 UNK         0.1032 
     83 H83       -75.7543   29.8443  -72.7539 H         1 UNK         0.0461 
     84 H84       -78.2135   32.1844  -73.6707 H         1 UNK         0.3453 
     85 H85       -77.8606   30.5965  -73.0432 H         1 UNK         0.3453 
     86 H86       -75.1326   28.6424  -74.4298 H         1 UNK         0.2984 
     87 H87       -74.9566   28.2399  -76.9395 H         1 UNK         0.0554 
     88 H88       -73.0902   28.3078  -78.5948 H         1 UNK         0.0847 
     89 H89       -72.4302   29.7438  -77.8132 H         1 UNK         0.0847 
     90 H90       -74.0019   29.8100  -78.5956 H         1 UNK         0.0847 
     91 H91       -73.6786   26.9264  -75.7287 H         1 UNK         0.3141 
     92 H92       -70.4320   27.0922  -74.2721 H         1 UNK         0.0743 
     93 H93       -73.2493   26.9732  -73.0742 H         1 UNK         0.0784 
     94 H94       -71.8239   26.2230  -72.3569 H         1 UNK         0.0784 
     95 H95       -71.9120   27.9691  -72.5249 H         1 UNK         0.0784 
     96 H96       -72.6886   25.2430  -74.8825 H         1 UNK         0.3213 
     97 H97       -70.7403   23.4213  -77.2202 H         1 UNK         0.0855 
     98 H98       -71.6062   22.5387  -74.4096 H         1 UNK         0.0814 
     99 H99       -69.9829   22.3998  -75.0693 H         1 UNK         0.0814 
    100 H100      -71.2922   21.4716  -75.7797 H         1 UNK         0.0814 
    101 H101      -73.3614   23.0367  -76.0991 H         1 UNK         0.3105 
    102 H102      -75.1172   25.3173  -78.0468 H         1 UNK         0.0547 
    103 H103      -74.7789   23.6120  -79.8442 H         1 UNK         0.0837 
    104 H104      -75.0146   22.3185  -78.6761 H         1 UNK         0.0837 
    105 H105      -76.3387   23.4198  -79.0621 H         1 UNK         0.0837 
    106 H106      -76.1247   23.1385  -76.5755 H         1 UNK         0.3020 
    107 H107      -76.0425   23.1804  -73.9566 H         1 UNK         0.1245 
    108 H108      -77.2844   24.8648  -72.3957 H         1 UNK         0.0781 
    109 H109      -76.4965   26.1355  -73.2856 H         1 UNK         0.0781 
    110 H110      -74.7493   25.1136  -69.6092 H         1 UNK         0.0836 
    111 H111      -76.3918   24.7560  -70.0686 H         1 UNK         0.0836 
    112 H112      -78.4086   24.7643  -74.6296 H         1 UNK         0.3022 
    113 H113      -79.8758   22.1064  -76.5519 H         1 UNK         0.0747 
    114 H114      -81.7137   22.8542  -75.0410 H         1 UNK         0.0793 
    115 H115      -80.5312   21.8889  -74.1737 H         1 UNK         0.0793 
    116 H116      -80.5457   23.6342  -73.9749 H         1 UNK         0.0793 
    117 H117      -80.0684   25.0342  -76.0240 H         1 UNK         0.3047 
    118 H118      -79.4569   25.8841  -79.3771 H         1 UNK         0.0822 
    119 H119      -81.7077   26.9412  -79.3574 H         1 UNK         0.0807 
    120 H120      -82.2169   25.8929  -78.0324 H         1 UNK         0.0807 
    121 H121      -81.8510   25.2104  -79.6106 H         1 UNK         0.0807 
    122 H122      -80.4457   27.3504  -77.0964 H         1 UNK         0.2946 
    123 H123      -77.3372   27.9093  -75.5538 H         1 UNK         0.1144 
    124 H124      -78.8492   29.9285  -77.3064 H         1 UNK         0.0793 
    125 H125      -77.1516   29.5147  -77.4838 H         1 UNK         0.0793 
    126 H126      -77.7025   30.3246  -76.0307 H         1 UNK         0.0793 
    127 H127      -79.7017   29.2628  -75.0165 H         1 UNK         0.2896 
@<TRIPOS>BOND
     1    1    2 1    
     2    1   67 1    
     3    1   68 1    
     4    1   69 1    
     5    2    3 2    
     6    2    4 am   BACKBONE|DICT|INTERRES
     7    4    5 1    
     8    4   70 1    
     9    5    6 1    
    10    5   65 1    
    11    5   71 1    
    12    6    7 1    
    13    6   72 1    
    14    6   73 1    
    15    7    8 1    
    16    8    9 1    
    17    8   74 1    
    18    8   75 1    
    19    9   10 ar   
    20    9   14 ar   
    21   10   11 ar   
    22   10   76 1    
    23   11   12 ar   
    24   11   48 1    
    25   12   13 ar   
    26   12   77 1    
    27   13   14 ar   
    28   13   15 1    
    29   14   78 1    
    30   15   16 1    
    31   15   79 1    
    32   15   80 1    
    33   16   17 1    
    34   17   18 1    
    35   17   81 1    
    36   17   82 1    
    37   18   19 1    
    38   18   22 1    
    39   18   83 1    
    40   19   20 am   BACKBONE|DICT|INTERRES
    41   19   21 2    
    42   20   84 1    
    43   20   85 1    
    44   22   23 am   BACKBONE|DICT|INTERRES
    45   22   86 1    
    46   23   24 2    
    47   23   25 1    
    48   25   26 1    
    49   25   27 1    
    50   25   87 1    
    51   26   88 1    
    52   26   89 1    
    53   26   90 1    
    54   27   28 am   BACKBONE|DICT|INTERRES
    55   27   91 1    
    56   28   29 2    
    57   28   30 1    
    58   30   31 1    
    59   30   32 1    
    60   30   92 1    
    61   31   93 1    
    62   31   94 1    
    63   31   95 1    
    64   32   33 am   BACKBONE|DICT|INTERRES
    65   32   96 1    
    66   33   34 2    
    67   33   35 1    
    68   35   36 1    
    69   35   37 1    
    70   35   97 1    
    71   36   98 1    
    72   36   99 1    
    73   36  100 1    
    74   37   38 am   BACKBONE|DICT|INTERRES
    75   37  101 1    
    76   38   39 2    
    77   38   40 1    
    78   40   41 1    
    79   40   42 1    
    80   40  102 1    
    81   41  103 1    
    82   41  104 1    
    83   41  105 1    
    84   42   43 am   BACKBONE|DICT|INTERRES
    85   42  106 1    
    86   43   44 2    
    87   43   45 1    
    88   45   46 1    
    89   45   49 1    
    90   45  107 1    
    91   46   47 1    
    92   46  108 1    
    93   46  109 1    
    94   47   48 1    
    95   48  110 1    
    96   48  111 1    
    97   49   50 am   BACKBONE|DICT|INTERRES
    98   49  112 1    
    99   50   51 2    
   100   50   52 1    
   101   52   53 1    
   102   52   54 1    
   103   52  113 1    
   104   53  114 1    
   105   53  115 1    
   106   53  116 1    
   107   54   55 am   BACKBONE|DICT|INTERRES
   108   54  117 1    
   109   55   56 2    
   110   55   57 1    
   111   57   58 1    
   112   57   59 1    
   113   57  118 1    
   114   58  119 1    
   115   58  120 1    
   116   58  121 1    
   117   59   60 am   BACKBONE|DICT|INTERRES
   118   59  122 1    
   119   60   61 2    
   120   60   62 1    
   121   62   63 1    
   122   62   64 1    
   123   62  123 1    
   124   63  124 1    
   125   63  125 1    
   126   63  126 1    
   127   64   65 am   BACKBONE|DICT|INTERRES
   128   64  127 1    
   129   65   66 2    
@<TRIPOS>SUBSTRUCTURE
     1 UNK         1 GROUP             0       ****    0 ROOT    
