@<TRIPOS>MOLECULE
3R135
127   129    1
SMALL
USER_CHARGES


@<TRIPOS>ATOM
      1 CA        -83.4487   24.1294  -73.6255 C.3       0 UNK        -0.1998 
      2 C         -82.1226   24.8294  -73.8798 C.2       0 UNK         0.4909 
      3 O         -81.0722   24.1997  -73.7612 O.2       0 UNK        -0.5240 
      4 N         -82.1705   26.1200  -74.2427 N.am      1 UNK        -0.4739 
      5 CA        -81.0223   27.0012  -74.5123 C.3       1 UNK         0.0864 
      6 C6        -80.1959   27.3455  -73.2416 C.3       11 UNK        -0.0881 
      7 S7        -81.2328   28.1236  -71.9495 S.3       11 UNK        -0.2682 
      8 C8        -80.4533   29.7644  -71.7226 C.3       11 UNK         0.0289 
      9 C9        -79.0533   29.7419  -71.1045 C.ar      11 UNK        -0.0687 
     10 C10       -78.6134   28.6806  -70.3033 C.ar      11 UNK        -0.0823 
     11 C11       -77.2988   28.6424  -69.8344 C.ar      11 UNK        -0.0830 
     12 C12       -76.4480   29.7256  -70.0698 C.ar      11 UNK        -0.1021 
     13 C13       -76.8714   30.7973  -70.8589 C.ar      11 UNK        -0.0753 
     14 C14       -78.1744   30.7995  -71.3704 C.ar      11 UNK        -0.0933 
     15 C15       -75.9072   31.9295  -71.1922 C.3       11 UNK         0.0166 
     16 S16       -74.8156   31.5110  -72.5965 S.3       11 UNK        -0.2615 
     17 C17       -73.5442   30.4716  -71.7926 C.3       11 UNK        -0.0865 
     18 CA        -72.2104   30.3796  -72.5828 C.3       10 UNK         0.0862 
     19 C         -71.1345   29.6387  -71.7344 C.2       10 UNK         0.5551 
     20 N         -70.7026   28.4374  -72.0959 N.am      10 UNK        -0.7319 
     21 O         -70.6835   30.1717  -70.7233 O.2       10 UNK        -0.5018 
     22 N         -72.4162   29.8372  -73.9353 N.am      10 UNK        -0.4509 
     23 C         -71.5295   29.8684  -74.9367 C.2       10 UNK         0.4899 
     24 O         -70.4042   30.3648  -74.8525 O.2       10 UNK        -0.4839 
     25 CA        -72.0086   29.2636  -76.2716 C.3       9 UNK         0.0222 
     26 CB        -71.3890   29.9931  -77.4774 C.3       9 UNK        -0.1966 
     27 N         -71.8270   27.8164  -76.4610 N.am      9 UNK        -0.4218 
     28 C         -71.7390   26.8132  -75.5723 C.2       9 UNK         0.5020 
     29 O         -71.5690   26.9493  -74.3602 O.2       9 UNK        -0.5274 
     30 CA        -71.9257   25.3967  -76.1568 C.3       8 UNK         0.0270 
     31 CB        -71.9213   24.3007  -75.0741 C.3       8 UNK        -0.1976 
     32 N         -73.1843   25.3094  -76.9042 N.am      8 UNK        -0.4313 
     33 C         -73.3629   25.7119  -78.1696 C.2       8 UNK         0.5041 
     34 O         -72.4503   26.1269  -78.8849 O.2       8 UNK        -0.5577 
     35 CA        -74.8103   25.7573  -78.6778 C.3       7 UNK         0.0284 
     36 CB        -75.3731   24.3469  -78.9185 C.3       7 UNK        -0.1958 
     37 N         -75.6468   26.4864  -77.7225 N.am      7 UNK        -0.4454 
     38 C         -75.6981   27.8249  -77.6414 C.2       7 UNK         0.5089 
     39 O         -75.1720   28.5793  -78.4599 O.2       7 UNK        -0.5125 
     40 CA        -76.4348   28.4356  -76.4372 C.3       6 UNK         0.0408 
     41 CB        -77.8307   28.9376  -76.8325 C.3       6 UNK        -0.1791 
     42 N         -76.5261   27.4994  -75.3104 N.am      6 UNK        -0.4762 
     43 C         -75.5394   27.3539  -74.4146 C.2       6 UNK         0.5007 
     44 O         -74.5193   28.0376  -74.4317 O.2       6 UNK        -0.5032 
     45 CA        -75.7050   26.3225  -73.2800 C.3       5 UNK         0.0783 
     46 C46       -76.2095   27.0692  -72.0333 C.3       11 UNK        -0.0857 
     47 S47       -76.4915   26.0659  -70.5288 S.3       11 UNK        -0.2512 
     48 C48       -76.7458   27.3535  -69.2404 C.3       11 UNK         0.0225 
     49 N         -76.5390   25.1605  -73.5916 N.am      5 UNK        -0.4615 
     50 C         -76.3222   24.2788  -74.5723 C.2       4 UNK         0.5053 
     51 O         -75.5152   24.4543  -75.4859 O.2       4 UNK        -0.5105 
     52 CA        -77.1017   22.9609  -74.4960 C.3       4 UNK         0.0263 
     53 CB        -77.5493   22.5790  -73.0676 C.3       4 UNK        -0.1981 
     54 N         -78.2620   23.0118  -75.3777 N.am      4 UNK        -0.4224 
     55 C         -78.7753   21.9464  -76.0099 C.2       3 UNK         0.4895 
     56 O         -78.2785   20.8199  -75.9581 O.2       3 UNK        -0.5091 
     57 CA        -80.0686   22.1382  -76.8239 C.3       3 UNK         0.0250 
     58 CB        -81.2592   21.4722  -76.1132 C.3       3 UNK        -0.1996 
     59 N         -80.3864   23.5439  -77.0728 N.am      3 UNK        -0.4254 
     60 C         -79.8089   24.2912  -78.0219 C.2       2 UNK         0.5004 
     61 O         -78.9967   23.8521  -78.8353 O.2       2 UNK        -0.5226 
     62 CA        -80.1911   25.7800  -78.0765 C.3       2 UNK         0.0269 
     63 CB        -81.1465   26.0471  -79.2509 C.3       2 UNK        -0.1926 
     64 N         -80.7964   26.2977  -76.8421 N.am      2 UNK        -0.4687 
     65 C         -80.1647   26.4412  -75.6676 C.2       1 UNK         0.5165 
     66 O         -78.9912   26.1099  -75.4836 O.2       1 UNK        -0.5079 
     67 H67       -83.5736   23.2980  -74.3187 H         1 UNK         0.0900 
     68 H68       -83.4729   23.7335  -72.6107 H         1 UNK         0.0900 
     69 H69       -84.2965   24.8035  -73.7464 H         1 UNK         0.0900 
     70 H70       -83.0740   26.5668  -74.3179 H         1 UNK         0.2959 
     71 H71       -81.4360   27.9404  -74.8838 H         1 UNK         0.1079 
     72 H72       -79.7374   26.4482  -72.8221 H         1 UNK         0.0837 
     73 H73       -79.3721   28.0160  -73.4937 H         1 UNK         0.0837 
     74 H74       -80.4262   30.2670  -72.6908 H         1 UNK         0.0685 
     75 H75       -81.0992   30.3647  -71.0809 H         1 UNK         0.0685 
     76 H76       -79.2565   27.8329  -70.1140 H         1 UNK         0.1434 
     77 H77       -75.4295   29.6966  -69.7090 H         1 UNK         0.1329 
     78 H78       -78.4988   31.6203  -71.9956 H         1 UNK         0.1335 
     79 H79       -75.3103   32.1886  -70.3166 H         1 UNK         0.0680 
     80 H80       -76.4690   32.8290  -71.4485 H         1 UNK         0.0680 
     81 H81       -73.3593   30.8758  -70.7953 H         1 UNK         0.1032 
     82 H82       -73.9526   29.4728  -71.6451 H         1 UNK         0.1032 
     83 H83       -71.8371   31.3973  -72.7111 H         1 UNK         0.0461 
     84 H84       -70.0048   27.9726  -71.5385 H         1 UNK         0.3453 
     85 H85       -71.0691   27.9835  -72.9317 H         1 UNK         0.3453 
     86 H86       -73.2795   29.3167  -74.0828 H         1 UNK         0.2984 
     87 H87       -73.0852   29.4358  -76.3233 H         1 UNK         0.0554 
     88 H88       -71.5100   31.0736  -77.3879 H         1 UNK         0.0847 
     89 H89       -71.8653   29.6933  -78.4113 H         1 UNK         0.0847 
     90 H90       -70.3209   29.7899  -77.5641 H         1 UNK         0.0847 
     91 H91       -71.9430   27.5074  -77.4205 H         1 UNK         0.3141 
     92 H92       -71.0883   25.2059  -76.8313 H         1 UNK         0.0743 
     93 H93       -70.9853   24.3069  -74.5140 H         1 UNK         0.0784 
     94 H94       -72.7330   24.4391  -74.3584 H         1 UNK         0.0784 
     95 H95       -72.0290   23.3091  -75.5137 H         1 UNK         0.0784 
     96 H96       -74.0026   25.0105  -76.3753 H         1 UNK         0.3213 
     97 H97       -74.8160   26.2858  -79.6339 H         1 UNK         0.0855 
     98 H98       -75.4190   23.7546  -78.0049 H         1 UNK         0.0814 
     99 H99       -74.7540   23.7988  -79.6298 H         1 UNK         0.0814 
    100 H100      -76.3789   24.3922  -79.3357 H         1 UNK         0.0814 
    101 H101      -76.0527   25.9450  -76.9690 H         1 UNK         0.3105 
    102 H102      -75.8658   29.3137  -76.1231 H         1 UNK         0.0547 
    103 H103      -78.3713   29.3334  -75.9728 H         1 UNK         0.0837 
    104 H104      -77.7564   29.7406  -77.5669 H         1 UNK         0.0837 
    105 H105      -78.4325   28.1522  -77.2810 H         1 UNK         0.0837 
    106 H106      -77.3593   26.9160  -75.2488 H         1 UNK         0.3020 
    107 H107      -74.7048   25.9396  -73.0646 H         1 UNK         0.1245 
    108 H108      -77.1456   27.5724  -72.2805 H         1 UNK         0.0781 
    109 H109      -75.4939   27.8482  -71.7743 H         1 UNK         0.0781 
    110 H110      -75.7958   27.5420  -68.7381 H         1 UNK         0.0836 
    111 H111      -77.4260   26.9726  -68.4772 H         1 UNK         0.0836 
    112 H112      -77.2364   24.9354  -72.8972 H         1 UNK         0.3022 
    113 H113      -76.4113   22.1916  -74.8487 H         1 UNK         0.0747 
    114 H114      -77.9365   21.5602  -73.0413 H         1 UNK         0.0793 
    115 H115      -76.7160   22.6207  -72.3645 H         1 UNK         0.0793 
    116 H116      -78.3378   23.2351  -72.6957 H         1 UNK         0.0793 
    117 H117      -78.7081   23.9172  -75.4770 H         1 UNK         0.3047 
    118 H118      -79.9258   21.6365  -77.7836 H         1 UNK         0.0822 
    119 H119      -81.0850   20.4034  -75.9816 H         1 UNK         0.0807 
    120 H120      -82.1789   21.5804  -76.6883 H         1 UNK         0.0807 
    121 H121      -81.4278   21.8956  -75.1228 H         1 UNK         0.0807 
    122 H122      -81.0241   23.9894  -76.4289 H         1 UNK         0.2946 
    123 H123      -79.2642   26.3238  -78.2631 H         1 UNK         0.1144 
    124 H124      -81.3475   27.1125  -79.3652 H         1 UNK         0.0793 
    125 H125      -82.1009   25.5357  -79.1196 H         1 UNK         0.0793 
    126 H126      -80.7173   25.6990  -80.1917 H         1 UNK         0.0793 
    127 H127      -81.7697   26.5631  -76.8978 H         1 UNK         0.2896 
@<TRIPOS>BOND
     1    1    2 1    
     2    1   67 1    
     3    1   68 1    
     4    1   69 1    
     5    2    3 2    
     6    2    4 am   BACKBONE|DICT|INTERRES
     7    4    5 1    
     8    4   70 1    
     9    5    6 1    
    10    5   65 1    
    11    5   71 1    
    12    6    7 1    
    13    6   72 1    
    14    6   73 1    
    15    7    8 1    
    16    8    9 1    
    17    8   74 1    
    18    8   75 1    
    19    9   10 ar   
    20    9   14 ar   
    21   10   11 ar   
    22   10   76 1    
    23   11   12 ar   
    24   11   48 1    
    25   12   13 ar   
    26   12   77 1    
    27   13   14 ar   
    28   13   15 1    
    29   14   78 1    
    30   15   16 1    
    31   15   79 1    
    32   15   80 1    
    33   16   17 1    
    34   17   18 1    
    35   17   81 1    
    36   17   82 1    
    37   18   19 1    
    38   18   22 1    
    39   18   83 1    
    40   19   20 am   BACKBONE|DICT|INTERRES
    41   19   21 2    
    42   20   84 1    
    43   20   85 1    
    44   22   23 am   BACKBONE|DICT|INTERRES
    45   22   86 1    
    46   23   24 2    
    47   23   25 1    
    48   25   26 1    
    49   25   27 1    
    50   25   87 1    
    51   26   88 1    
    52   26   89 1    
    53   26   90 1    
    54   27   28 am   BACKBONE|DICT|INTERRES
    55   27   91 1    
    56   28   29 2    
    57   28   30 1    
    58   30   31 1    
    59   30   32 1    
    60   30   92 1    
    61   31   93 1    
    62   31   94 1    
    63   31   95 1    
    64   32   33 am   BACKBONE|DICT|INTERRES
    65   32   96 1    
    66   33   34 2    
    67   33   35 1    
    68   35   36 1    
    69   35   37 1    
    70   35   97 1    
    71   36   98 1    
    72   36   99 1    
    73   36  100 1    
    74   37   38 am   BACKBONE|DICT|INTERRES
    75   37  101 1    
    76   38   39 2    
    77   38   40 1    
    78   40   41 1    
    79   40   42 1    
    80   40  102 1    
    81   41  103 1    
    82   41  104 1    
    83   41  105 1    
    84   42   43 am   BACKBONE|DICT|INTERRES
    85   42  106 1    
    86   43   44 2    
    87   43   45 1    
    88   45   46 1    
    89   45   49 1    
    90   45  107 1    
    91   46   47 1    
    92   46  108 1    
    93   46  109 1    
    94   47   48 1    
    95   48  110 1    
    96   48  111 1    
    97   49   50 am   BACKBONE|DICT|INTERRES
    98   49  112 1    
    99   50   51 2    
   100   50   52 1    
   101   52   53 1    
   102   52   54 1    
   103   52  113 1    
   104   53  114 1    
   105   53  115 1    
   106   53  116 1    
   107   54   55 am   BACKBONE|DICT|INTERRES
   108   54  117 1    
   109   55   56 2    
   110   55   57 1    
   111   57   58 1    
   112   57   59 1    
   113   57  118 1    
   114   58  119 1    
   115   58  120 1    
   116   58  121 1    
   117   59   60 am   BACKBONE|DICT|INTERRES
   118   59  122 1    
   119   60   61 2    
   120   60   62 1    
   121   62   63 1    
   122   62   64 1    
   123   62  123 1    
   124   63  124 1    
   125   63  125 1    
   126   63  126 1    
   127   64   65 am   BACKBONE|DICT|INTERRES
   128   64  127 1    
   129   65   66 2    
@<TRIPOS>SUBSTRUCTURE
     1 UNK         1 GROUP             0       ****    0 ROOT    
