@<TRIPOS>MOLECULE
3R135
127   129    1
SMALL
USER_CHARGES


@<TRIPOS>ATOM
      1 CA        -85.6662   29.3226  -75.9489 C.3       0 UNK        -0.1998 
      2 C         -84.2249   29.2252  -76.4253 C.2       0 UNK         0.4909 
      3 O         -83.9820   29.1518  -77.6302 O.2       0 UNK        -0.5240 
      4 N         -83.2681   29.2300  -75.4883 N.am      1 UNK        -0.4739 
      5 CA        -81.8287   29.0909  -75.7455 C.3       1 UNK         0.0864 
      6 C6        -80.9797   29.5147  -74.5172 C.3       11 UNK        -0.0881 
      7 S7        -81.4785   28.7060  -72.9561 S.3       11 UNK        -0.2682 
      8 C8        -80.4690   29.6087  -71.7405 C.3       11 UNK         0.0289 
      9 C9        -79.0569   29.0494  -71.6394 C.ar      11 UNK        -0.0687 
     10 C10       -78.8424   27.8173  -71.0131 C.ar      11 UNK        -0.0823 
     11 C11       -77.5492   27.3073  -70.8714 C.ar      11 UNK        -0.0830 
     12 C12       -76.4701   28.0419  -71.3641 C.ar      11 UNK        -0.1021 
     13 C13       -76.6643   29.2678  -72.0053 C.ar      11 UNK        -0.0753 
     14 C14       -77.9647   29.7683  -72.1382 C.ar      11 UNK        -0.0933 
     15 C15       -75.4800   30.0277  -72.5936 C.3       11 UNK         0.0166 
     16 S16       -74.3078   30.6328  -71.3363 S.3       11 UNK        -0.2615 
     17 C17       -73.0495   29.3030  -71.2691 C.3       11 UNK        -0.0865 
     18 CA        -71.8633   29.5418  -72.2417 C.3       10 UNK         0.0862 
     19 C         -70.6386   28.6347  -71.9157 C.2       10 UNK         0.5551 
     20 N         -69.9778   28.0182  -72.8896 N.am      10 UNK        -0.7319 
     21 O         -70.2649   28.4982  -70.7533 O.2       10 UNK        -0.5018 
     22 N         -72.3000   29.4276  -73.6416 N.am      10 UNK        -0.4509 
     23 C         -71.9388   30.2540  -74.6291 C.2       10 UNK         0.4899 
     24 O         -71.2383   31.2548  -74.4667 O.2       10 UNK        -0.4839 
     25 CA        -72.4416   29.8848  -76.0388 C.3       9 UNK         0.0222 
     26 CB        -71.7385   30.6841  -77.1561 C.3       9 UNK        -0.1966 
     27 N         -72.3791   28.4447  -76.3232 N.am      9 UNK        -0.4218 
     28 C         -71.2947   27.6525  -76.2807 C.2       9 UNK         0.5020 
     29 O         -70.1794   28.0505  -75.9411 O.2       9 UNK        -0.5274 
     30 CA        -71.4597   26.1606  -76.6381 C.3       8 UNK         0.0270 
     31 CB        -71.0599   25.2774  -75.4431 C.3       8 UNK        -0.1976 
     32 N         -72.8111   25.7904  -77.0640 N.am      8 UNK        -0.4313 
     33 C         -73.3641   26.0705  -78.2516 C.2       8 UNK         0.5041 
     34 O         -72.7599   26.6076  -79.1801 O.2       8 UNK        -0.5577 
     35 CA        -74.8643   25.7512  -78.4029 C.3       7 UNK         0.0284 
     36 CB        -75.0712   24.2999  -78.8624 C.3       7 UNK        -0.1958 
     37 N         -75.6253   26.0017  -77.1712 N.am      7 UNK        -0.4454 
     38 C         -75.7441   27.2065  -76.5919 C.2       7 UNK         0.5089 
     39 O         -75.2712   28.2402  -77.0625 O.2       7 UNK        -0.5125 
     40 CA        -76.4466   27.2658  -75.2311 C.3       6 UNK         0.0408 
     41 CB        -77.9650   27.3360  -75.3964 C.3       6 UNK        -0.1791 
     42 N         -76.0890   26.1305  -74.3864 N.am      6 UNK        -0.4762 
     43 C         -74.9209   26.0050  -73.7405 C.2       6 UNK         0.5007 
     44 O         -74.0368   26.8655  -73.7475 O.2       6 UNK        -0.5032 
     45 CA        -74.6801   24.6700  -73.0032 C.3       5 UNK         0.0783 
     46 C46       -75.1641   24.6991  -71.5312 C.3       11 UNK        -0.0857 
     47 S47       -76.9839   24.6198  -71.3306 S.3       11 UNK        -0.2512 
     48 C48       -77.3157   25.9794  -70.1635 C.3       11 UNK         0.0225 
     49 N         -75.2291   23.5212  -73.7298 N.am      5 UNK        -0.4615 
     50 C         -74.8190   23.1122  -74.9356 C.2       4 UNK         0.5053 
     51 O         -73.8946   23.6366  -75.5529 O.2       4 UNK        -0.5105 
     52 CA        -75.5854   21.9468  -75.5797 C.3       4 UNK         0.0263 
     53 CB        -74.9153   20.6095  -75.2277 C.3       4 UNK        -0.1981 
     54 N         -77.0065   21.8899  -75.2228 N.am      4 UNK        -0.4224 
     55 C         -77.9171   22.8369  -75.4926 C.2       3 UNK         0.4895 
     56 O         -77.6451   23.9141  -76.0290 O.2       3 UNK        -0.5091 
     57 CA        -79.3634   22.4759  -75.1096 C.3       3 UNK         0.0250 
     58 CB        -79.5318   22.3022  -73.5834 C.3       3 UNK        -0.1996 
     59 N         -80.3743   23.3790  -75.6802 N.am      3 UNK        -0.4254 
     60 C         -80.7402   24.6034  -75.2710 C.2       2 UNK         0.5004 
     61 O         -80.2662   25.1888  -74.2957 O.2       2 UNK        -0.5226 
     62 CA        -81.8923   25.2429  -76.0701 C.3       2 UNK         0.0269 
     63 CB        -83.2129   24.4922  -75.8175 C.3       2 UNK        -0.1926 
     64 N         -82.0974   26.6481  -75.7157 N.am      2 UNK        -0.4687 
     65 C         -81.4559   27.6850  -76.2687 C.2       1 UNK         0.5165 
     66 O         -80.6416   27.5738  -77.1863 O.2       1 UNK        -0.5079 
     67 H67       -86.2264   28.4438  -76.2672 H         1 UNK         0.0900 
     68 H68       -85.7331   29.3924  -74.8633 H         1 UNK         0.0900 
     69 H69       -86.1437   30.2045  -76.3751 H         1 UNK         0.0900 
     70 H70       -83.5228   29.2918  -74.5120 H         1 UNK         0.2959 
     71 H71       -81.5836   29.7826  -76.5551 H         1 UNK         0.1079 
     72 H72       -79.9180   29.3391  -74.6905 H         1 UNK         0.0837 
     73 H73       -81.0765   30.5928  -74.3793 H         1 UNK         0.0837 
     74 H74       -80.4548   30.6718  -71.9852 H         1 UNK         0.0685 
     75 H75       -80.9498   29.5305  -70.7644 H         1 UNK         0.0685 
     76 H76       -79.6871   27.2596  -70.6322 H         1 UNK         0.1434 
     77 H77       -75.4759   27.6472  -71.2557 H         1 UNK         0.1329 
     78 H78       -78.1285   30.7172  -72.6301 H         1 UNK         0.1335 
     79 H79       -74.9550   29.3909  -73.3018 H         1 UNK         0.0680 
     80 H80       -75.8313   30.8859  -73.1681 H         1 UNK         0.0680 
     81 H81       -72.6982   29.2665  -70.2363 H         1 UNK         0.1032 
     82 H82       -73.4924   28.3289  -71.4638 H         1 UNK         0.1032 
     83 H83       -71.5074   30.5576  -72.0613 H         1 UNK         0.0461 
     84 H84       -69.1843   27.4445  -72.6534 H         1 UNK         0.3453 
     85 H85       -70.2252   28.1568  -73.8618 H         1 UNK         0.3453 
     86 H86       -72.8496   28.6035  -73.8621 H         1 UNK         0.2984 
     87 H87       -73.4989   30.1521  -76.0593 H         1 UNK         0.0554 
     88 H88       -71.8830   31.7568  -77.0218 H         1 UNK         0.0847 
     89 H89       -72.1359   30.4258  -78.1377 H         1 UNK         0.0847 
     90 H90       -70.6637   30.4995  -77.1700 H         1 UNK         0.0847 
     91 H91       -73.2625   28.0312  -76.6006 H         1 UNK         0.3141 
     92 H92       -70.7740   25.9509  -77.4615 H         1 UNK         0.0743 
     93 H93       -71.7004   25.4577  -74.5790 H         1 UNK         0.0784 
     94 H94       -71.1242   24.2181  -75.6928 H         1 UNK         0.0784 
     95 H95       -70.0324   25.4727  -75.1334 H         1 UNK         0.0784 
     96 H96       -73.3576   25.2470  -76.3992 H         1 UNK         0.3213 
     97 H97       -75.2672   26.4122  -79.1734 H         1 UNK         0.0855 
     98 H98       -74.6041   23.5901  -78.1808 H         1 UNK         0.0814 
     99 H99       -74.6267   24.1403  -79.8456 H         1 UNK         0.0814 
    100 H100      -76.1296   24.0501  -78.9395 H         1 UNK         0.0814 
    101 H101      -76.0822   25.2099  -76.7311 H         1 UNK         0.3105 
    102 H102      -76.1321   28.1826  -74.7357 H         1 UNK         0.0547 
    103 H103      -78.2458   28.2171  -75.9734 H         1 UNK         0.0837 
    104 H104      -78.3578   26.4660  -75.9222 H         1 UNK         0.0837 
    105 H105      -78.4668   27.3977  -74.4299 H         1 UNK         0.0837 
    106 H106      -76.7514   25.3664  -74.3498 H         1 UNK         0.3020 
    107 H107      -73.5956   24.5377  -72.9822 H         1 UNK         0.1245 
    108 H108      -74.7530   25.5629  -71.0088 H         1 UNK         0.0781 
    109 H109      -74.7512   23.8353  -71.0080 H         1 UNK         0.0781 
    110 H110      -76.4967   26.0723  -69.4489 H         1 UNK         0.0836 
    111 H111      -78.1943   25.7140  -69.5735 H         1 UNK         0.0836 
    112 H112      -76.0071   23.0498  -73.2920 H         1 UNK         0.3022 
    113 H113      -75.5300   22.0773  -76.6614 H         1 UNK         0.0747 
    114 H114      -75.3813   19.7790  -75.7584 H         1 UNK         0.0793 
    115 H115      -73.8604   20.6169  -75.5064 H         1 UNK         0.0793 
    116 H116      -74.9682   20.3989  -74.1587 H         1 UNK         0.0793 
    117 H117      -77.3195   21.0356  -74.7842 H         1 UNK         0.3047 
    118 H118      -79.5660   21.5073  -75.5696 H         1 UNK         0.0822 
    119 H119      -80.5687   22.0938  -73.3195 H         1 UNK         0.0807 
    120 H120      -79.2198   23.1913  -73.0345 H         1 UNK         0.0807 
    121 H121      -78.9343   21.4708  -73.2085 H         1 UNK         0.0807 
    122 H122      -80.8282   23.0182  -76.5076 H         1 UNK         0.2946 
    123 H123      -81.6460   25.1752  -77.1325 H         1 UNK         0.1144 
    124 H124      -84.0350   24.9384  -76.3778 H         1 UNK         0.0793 
    125 H125      -83.4846   24.5007  -74.7610 H         1 UNK         0.0793 
    126 H126      -83.1453   23.4488  -76.1275 H         1 UNK         0.0793 
    127 H127      -82.7027   26.8336  -74.9294 H         1 UNK         0.2896 
@<TRIPOS>BOND
     1    1    2 1    
     2    1   67 1    
     3    1   68 1    
     4    1   69 1    
     5    2    3 2    
     6    2    4 am   BACKBONE|DICT|INTERRES
     7    4    5 1    
     8    4   70 1    
     9    5    6 1    
    10    5   65 1    
    11    5   71 1    
    12    6    7 1    
    13    6   72 1    
    14    6   73 1    
    15    7    8 1    
    16    8    9 1    
    17    8   74 1    
    18    8   75 1    
    19    9   10 ar   
    20    9   14 ar   
    21   10   11 ar   
    22   10   76 1    
    23   11   12 ar   
    24   11   48 1    
    25   12   13 ar   
    26   12   77 1    
    27   13   14 ar   
    28   13   15 1    
    29   14   78 1    
    30   15   16 1    
    31   15   79 1    
    32   15   80 1    
    33   16   17 1    
    34   17   18 1    
    35   17   81 1    
    36   17   82 1    
    37   18   19 1    
    38   18   22 1    
    39   18   83 1    
    40   19   20 am   BACKBONE|DICT|INTERRES
    41   19   21 2    
    42   20   84 1    
    43   20   85 1    
    44   22   23 am   BACKBONE|DICT|INTERRES
    45   22   86 1    
    46   23   24 2    
    47   23   25 1    
    48   25   26 1    
    49   25   27 1    
    50   25   87 1    
    51   26   88 1    
    52   26   89 1    
    53   26   90 1    
    54   27   28 am   BACKBONE|DICT|INTERRES
    55   27   91 1    
    56   28   29 2    
    57   28   30 1    
    58   30   31 1    
    59   30   32 1    
    60   30   92 1    
    61   31   93 1    
    62   31   94 1    
    63   31   95 1    
    64   32   33 am   BACKBONE|DICT|INTERRES
    65   32   96 1    
    66   33   34 2    
    67   33   35 1    
    68   35   36 1    
    69   35   37 1    
    70   35   97 1    
    71   36   98 1    
    72   36   99 1    
    73   36  100 1    
    74   37   38 am   BACKBONE|DICT|INTERRES
    75   37  101 1    
    76   38   39 2    
    77   38   40 1    
    78   40   41 1    
    79   40   42 1    
    80   40  102 1    
    81   41  103 1    
    82   41  104 1    
    83   41  105 1    
    84   42   43 am   BACKBONE|DICT|INTERRES
    85   42  106 1    
    86   43   44 2    
    87   43   45 1    
    88   45   46 1    
    89   45   49 1    
    90   45  107 1    
    91   46   47 1    
    92   46  108 1    
    93   46  109 1    
    94   47   48 1    
    95   48  110 1    
    96   48  111 1    
    97   49   50 am   BACKBONE|DICT|INTERRES
    98   49  112 1    
    99   50   51 2    
   100   50   52 1    
   101   52   53 1    
   102   52   54 1    
   103   52  113 1    
   104   53  114 1    
   105   53  115 1    
   106   53  116 1    
   107   54   55 am   BACKBONE|DICT|INTERRES
   108   54  117 1    
   109   55   56 2    
   110   55   57 1    
   111   57   58 1    
   112   57   59 1    
   113   57  118 1    
   114   58  119 1    
   115   58  120 1    
   116   58  121 1    
   117   59   60 am   BACKBONE|DICT|INTERRES
   118   59  122 1    
   119   60   61 2    
   120   60   62 1    
   121   62   63 1    
   122   62   64 1    
   123   62  123 1    
   124   63  124 1    
   125   63  125 1    
   126   63  126 1    
   127   64   65 am   BACKBONE|DICT|INTERRES
   128   64  127 1    
   129   65   66 2    
@<TRIPOS>SUBSTRUCTURE
     1 UNK         1 GROUP             0       ****    0 ROOT    
