@<TRIPOS>MOLECULE
3R135
127   129    1
SMALL
USER_CHARGES


@<TRIPOS>ATOM
      1 CA        -85.4583   28.2672  -72.7710 C.3       0 UNK        -0.1998 
      2 C         -84.5615   29.0686  -73.7023 C.2       0 UNK         0.4909 
      3 O         -85.0135   29.5115  -74.7584 O.2       0 UNK        -0.5240 
      4 N         -83.2918   29.2574  -73.3206 N.am      1 UNK        -0.4739 
      5 CA        -82.2773   29.9830  -74.0973 C.3       1 UNK         0.0864 
      6 C6        -81.1353   30.5224  -73.1948 C.3       11 UNK        -0.0881 
      7 S7        -80.3553   29.2839  -72.0961 S.3       11 UNK        -0.2682 
      8 C8        -79.0058   28.6580  -73.1445 C.3       11 UNK         0.0289 
      9 C9        -77.9253   27.9761  -72.3181 C.ar      11 UNK        -0.0687 
     10 C10       -78.1419   26.7039  -71.7796 C.ar      11 UNK        -0.0823 
     11 C11       -77.1514   26.0794  -71.0145 C.ar      11 UNK        -0.0830 
     12 C12       -75.9286   26.7252  -70.8126 C.ar      11 UNK        -0.1021 
     13 C13       -75.7009   28.0002  -71.3393 C.ar      11 UNK        -0.0753 
     14 C14       -76.7064   28.6212  -72.0876 C.ar      11 UNK        -0.0933 
     15 C15       -74.3892   28.7177  -71.0457 C.3       11 UNK         0.0166 
     16 S16       -73.3231   28.8693  -72.5146 S.3       11 UNK        -0.2615 
     17 C17       -73.8218   30.4954  -73.1864 C.3       11 UNK        -0.0865 
     18 CA        -74.1815   30.4269  -74.7010 C.3       10 UNK         0.0862 
     19 C         -74.8644   31.7162  -75.2575 C.2       10 UNK         0.5551 
     20 N         -75.6975   32.3923  -74.4762 N.am      10 UNK        -0.7319 
     21 O         -74.6942   32.0884  -76.4176 O.2       10 UNK        -0.5018 
     22 N         -73.0464   29.9729  -75.5233 N.am      10 UNK        -0.4509 
     23 C         -71.8904   30.6268  -75.7099 C.2       10 UNK         0.4899 
     24 O         -71.6213   31.7122  -75.1905 O.2       10 UNK        -0.4839 
     25 CA        -70.8609   29.9453  -76.6350 C.3       9 UNK         0.0222 
     26 CB        -69.4929   30.6609  -76.6498 C.3       9 UNK        -0.1966 
     27 N         -70.6932   28.5154  -76.3516 N.am      9 UNK        -0.4218 
     28 C         -70.3161   27.9352  -75.2019 C.2       9 UNK         0.5020 
     29 O         -69.9828   28.5640  -74.1961 O.2       9 UNK        -0.5274 
     30 CA        -70.3048   26.3880  -75.1755 C.3       8 UNK         0.0270 
     31 CB        -70.2445   25.8262  -73.7424 C.3       8 UNK        -0.1976 
     32 N         -71.4588   25.7939  -75.8595 N.am      8 UNK        -0.4313 
     33 C         -71.6256   25.7056  -77.1875 C.2       8 UNK         0.5041 
     34 O         -70.7799   26.0842  -77.9984 O.2       8 UNK        -0.5577 
     35 CA        -72.9744   25.1759  -77.7078 C.3       7 UNK         0.0284 
     36 CB        -72.8462   23.7029  -78.1243 C.3       7 UNK        -0.1958 
     37 N         -74.0715   25.3213  -76.7466 N.am      7 UNK        -0.4454 
     38 C         -74.5351   26.4918  -76.2790 C.2       7 UNK         0.5089 
     39 O         -74.1259   27.5853  -76.6701 O.2       7 UNK        -0.5125 
     40 CA        -75.6113   26.4467  -75.1780 C.3       6 UNK         0.0408 
     41 CB        -76.9611   26.9282  -75.7321 C.3       6 UNK        -0.1791 
     42 N         -75.7699   25.1195  -74.5724 N.am      6 UNK        -0.4762 
     43 C         -74.8661   24.5431  -73.7624 C.2       6 UNK         0.5007 
     44 O         -73.7998   25.0771  -73.4549 O.2       6 UNK        -0.5032 
     45 CA        -75.1488   23.1096  -73.2626 C.3       5 UNK         0.0783 
     46 C46       -75.5935   23.0820  -71.7760 C.3       11 UNK        -0.0857 
     47 S47       -77.3843   23.3548  -71.5266 S.3       11 UNK        -0.2512 
     48 C48       -77.4275   24.7386  -70.3507 C.3       11 UNK         0.0225 
     49 N         -76.0701   22.3601  -74.1231 N.am      5 UNK        -0.4615 
     50 C         -75.8258   21.9630  -75.3771 C.2       4 UNK         0.5053 
     51 O         -74.7524   22.1415  -75.9502 O.2       4 UNK        -0.5105 
     52 CA        -76.9940   21.2971  -76.1297 C.3       4 UNK         0.0263 
     53 CB        -76.9665   19.7742  -75.9247 C.3       4 UNK        -0.1981 
     54 N         -78.3147   21.8206  -75.7493 N.am      4 UNK        -0.4224 
     55 C         -78.6927   23.0961  -75.9118 C.2       3 UNK         0.4895 
     56 O         -77.9684   23.9588  -76.4146 O.2       3 UNK        -0.5091 
     57 CA        -80.0813   23.4907  -75.3911 C.3       3 UNK         0.0250 
     58 CB        -80.0919   23.4908  -73.8482 C.3       3 UNK        -0.1996 
     59 N         -80.3772   24.8235  -75.9141 N.am      3 UNK        -0.4254 
     60 C         -81.4825   25.5490  -75.7252 C.2       2 UNK         0.5004 
     61 O         -82.4687   25.1700  -75.0886 O.2       2 UNK        -0.5226 
     62 CA        -81.4932   26.9437  -76.3558 C.3       2 UNK         0.0269 
     63 CB        -82.3584   26.9768  -77.6283 C.3       2 UNK        -0.1926 
     64 N         -82.0137   27.8777  -75.3639 N.am      2 UNK        -0.4687 
     65 C         -81.7238   29.1821  -75.2979 C.2       1 UNK         0.5165 
     66 O         -81.0247   29.7595  -76.1321 O.2       1 UNK        -0.5079 
     67 H67       -86.3156   28.8674  -72.4673 H         1 UNK         0.0900 
     68 H68       -84.9315   27.9492  -71.8715 H         1 UNK         0.0900 
     69 H69       -85.8277   27.3774  -73.2802 H         1 UNK         0.0900 
     70 H70       -82.9657   28.8739  -72.4437 H         1 UNK         0.2959 
     71 H71       -82.7674   30.8541  -74.5389 H         1 UNK         0.1079 
     72 H72       -80.3695   31.0279  -73.7867 H         1 UNK         0.0837 
     73 H73       -81.5441   31.3002  -72.5480 H         1 UNK         0.0837 
     74 H74       -78.5758   29.4754  -73.7254 H         1 UNK         0.0685 
     75 H75       -79.4167   27.9494  -73.8638 H         1 UNK         0.0685 
     76 H76       -79.0912   26.2106  -71.9365 H         1 UNK         0.1434 
     77 H77       -75.1625   26.2464  -70.2183 H         1 UNK         0.1329 
     78 H78       -76.5462   29.6106  -72.4881 H         1 UNK         0.1335 
     79 H79       -74.5903   29.6993  -70.6148 H         1 UNK         0.0680 
     80 H80       -73.8283   28.1732  -70.2846 H         1 UNK         0.0680 
     81 H81       -74.6577   30.8733  -72.6006 H         1 UNK         0.1032 
     82 H82       -73.0096   31.2030  -73.0146 H         1 UNK         0.1032 
     83 H83       -74.9400   29.6525  -74.8194 H         1 UNK         0.0461 
     84 H84       -75.8834   32.1127  -73.5276 H         1 UNK         0.3453 
     85 H85       -76.1498   33.2122  -74.8498 H         1 UNK         0.3453 
     86 H86       -73.2071   29.0987  -76.0169 H         1 UNK         0.2984 
     87 H87       -71.2737   30.0073  -77.6428 H         1 UNK         0.0554 
     88 H88       -68.7987   30.1773  -77.3368 H         1 UNK         0.0847 
     89 H89       -69.0324   30.6741  -75.6614 H         1 UNK         0.0847 
     90 H90       -69.5973   31.6974  -76.9730 H         1 UNK         0.0847 
     91 H91       -70.8997   27.8848  -77.1205 H         1 UNK         0.3141 
     92 H92       -69.3979   26.0714  -75.6948 H         1 UNK         0.0743 
     93 H93       -69.3519   26.1730  -73.2201 H         1 UNK         0.0784 
     94 H94       -71.1097   26.1376  -73.1546 H         1 UNK         0.0784 
     95 H95       -70.2137   24.7365  -73.7424 H         1 UNK         0.0784 
     96 H96       -72.2262   25.5075  -75.2646 H         1 UNK         0.3213 
     97 H97       -73.2340   25.7609  -78.5926 H         1 UNK         0.0855 
     98 H98       -72.5644   23.0692  -77.2824 H         1 UNK         0.0814 
     99 H99       -72.0820   23.5804  -78.8932 H         1 UNK         0.0814 
    100 H100      -73.7816   23.3207  -78.5336 H         1 UNK         0.0814 
    101 H101      -74.4703   24.4667  -76.3788 H         1 UNK         0.3105 
    102 H102      -75.3055   27.1342  -74.3866 H         1 UNK         0.0547 
    103 H103      -77.2134   26.4331  -76.6700 H         1 UNK         0.0837 
    104 H104      -77.7706   26.7427  -75.0285 H         1 UNK         0.0837 
    105 H105      -76.9357   28.0002  -75.9313 H         1 UNK         0.0837 
    106 H106      -76.5932   24.5959  -74.8435 H         1 UNK         0.3020 
    107 H107      -74.1855   22.5966  -73.3168 H         1 UNK         0.1245 
    108 H108      -75.0142   23.7878  -71.1773 H         1 UNK         0.0781 
    109 H109      -75.3654   22.1002  -71.3586 H         1 UNK         0.0781 
    110 H110      -76.7253   24.5499  -69.5371 H         1 UNK         0.0836 
    111 H111      -78.4160   24.7695  -69.8901 H         1 UNK         0.0836 
    112 H112      -76.9814   22.1828  -73.7259 H         1 UNK         0.3022 
    113 H113      -76.8516   21.5012  -77.1932 H         1 UNK         0.0747 
    114 H114      -77.7286   19.2784  -76.5263 H         1 UNK         0.0793 
    115 H115      -76.0022   19.3585  -76.2209 H         1 UNK         0.0793 
    116 H116      -77.1315   19.5029  -74.8811 H         1 UNK         0.0793 
    117 H117      -78.9606   21.1669  -75.3296 H         1 UNK         0.3047 
    118 H118      -80.8186   22.7837  -75.7759 H         1 UNK         0.0822 
    119 H119      -79.7652   22.5327  -73.4429 H         1 UNK         0.0807 
    120 H120      -81.0894   23.6717  -73.4490 H         1 UNK         0.0807 
    121 H121      -79.4313   24.2605  -73.4493 H         1 UNK         0.0807 
    122 H122      -79.6136   25.1950  -76.4682 H         1 UNK         0.2946 
    123 H123      -80.4687   27.2262  -76.6109 H         1 UNK         0.1144 
    124 H124      -81.9906   26.2661  -78.3694 H         1 UNK         0.0793 
    125 H125      -82.3464   27.9635  -78.0916 H         1 UNK         0.0793 
    126 H126      -83.3969   26.7204  -77.4146 H         1 UNK         0.0793 
    127 H127      -82.5789   27.4596  -74.6359 H         1 UNK         0.2896 
@<TRIPOS>BOND
     1    1    2 1    
     2    1   67 1    
     3    1   68 1    
     4    1   69 1    
     5    2    3 2    
     6    2    4 am   BACKBONE|DICT|INTERRES
     7    4    5 1    
     8    4   70 1    
     9    5    6 1    
    10    5   65 1    
    11    5   71 1    
    12    6    7 1    
    13    6   72 1    
    14    6   73 1    
    15    7    8 1    
    16    8    9 1    
    17    8   74 1    
    18    8   75 1    
    19    9   10 ar   
    20    9   14 ar   
    21   10   11 ar   
    22   10   76 1    
    23   11   12 ar   
    24   11   48 1    
    25   12   13 ar   
    26   12   77 1    
    27   13   14 ar   
    28   13   15 1    
    29   14   78 1    
    30   15   16 1    
    31   15   79 1    
    32   15   80 1    
    33   16   17 1    
    34   17   18 1    
    35   17   81 1    
    36   17   82 1    
    37   18   19 1    
    38   18   22 1    
    39   18   83 1    
    40   19   20 am   BACKBONE|DICT|INTERRES
    41   19   21 2    
    42   20   84 1    
    43   20   85 1    
    44   22   23 am   BACKBONE|DICT|INTERRES
    45   22   86 1    
    46   23   24 2    
    47   23   25 1    
    48   25   26 1    
    49   25   27 1    
    50   25   87 1    
    51   26   88 1    
    52   26   89 1    
    53   26   90 1    
    54   27   28 am   BACKBONE|DICT|INTERRES
    55   27   91 1    
    56   28   29 2    
    57   28   30 1    
    58   30   31 1    
    59   30   32 1    
    60   30   92 1    
    61   31   93 1    
    62   31   94 1    
    63   31   95 1    
    64   32   33 am   BACKBONE|DICT|INTERRES
    65   32   96 1    
    66   33   34 2    
    67   33   35 1    
    68   35   36 1    
    69   35   37 1    
    70   35   97 1    
    71   36   98 1    
    72   36   99 1    
    73   36  100 1    
    74   37   38 am   BACKBONE|DICT|INTERRES
    75   37  101 1    
    76   38   39 2    
    77   38   40 1    
    78   40   41 1    
    79   40   42 1    
    80   40  102 1    
    81   41  103 1    
    82   41  104 1    
    83   41  105 1    
    84   42   43 am   BACKBONE|DICT|INTERRES
    85   42  106 1    
    86   43   44 2    
    87   43   45 1    
    88   45   46 1    
    89   45   49 1    
    90   45  107 1    
    91   46   47 1    
    92   46  108 1    
    93   46  109 1    
    94   47   48 1    
    95   48  110 1    
    96   48  111 1    
    97   49   50 am   BACKBONE|DICT|INTERRES
    98   49  112 1    
    99   50   51 2    
   100   50   52 1    
   101   52   53 1    
   102   52   54 1    
   103   52  113 1    
   104   53  114 1    
   105   53  115 1    
   106   53  116 1    
   107   54   55 am   BACKBONE|DICT|INTERRES
   108   54  117 1    
   109   55   56 2    
   110   55   57 1    
   111   57   58 1    
   112   57   59 1    
   113   57  118 1    
   114   58  119 1    
   115   58  120 1    
   116   58  121 1    
   117   59   60 am   BACKBONE|DICT|INTERRES
   118   59  122 1    
   119   60   61 2    
   120   60   62 1    
   121   62   63 1    
   122   62   64 1    
   123   62  123 1    
   124   63  124 1    
   125   63  125 1    
   126   63  126 1    
   127   64   65 am   BACKBONE|DICT|INTERRES
   128   64  127 1    
   129   65   66 2    
@<TRIPOS>SUBSTRUCTURE
     1 UNK         1 GROUP             0       ****    0 ROOT    
