@<TRIPOS>MOLECULE
3R135
127   129    1
SMALL
USER_CHARGES


@<TRIPOS>ATOM
      1 CA        -81.1786   22.2594  -70.8338 C.3       0 UNK        -0.1998 
      2 C         -81.8587   23.6065  -71.0274 C.2       0 UNK         0.4909 
      3 O         -83.0201   23.7677  -70.6512 O.2       0 UNK        -0.5240 
      4 N         -81.1458   24.5726  -71.6127 N.am      1 UNK        -0.4739 
      5 CA        -81.6257   25.9184  -71.9126 C.3       1 UNK         0.0864 
      6 C6        -81.4395   26.8653  -70.6977 C.3       11 UNK        -0.0881 
      7 S7        -82.0701   28.5599  -70.9720 S.3       11 UNK        -0.2682 
      8 C8        -80.7228   29.5970  -70.3030 C.3       11 UNK         0.0289 
      9 C9        -79.3882   29.3473  -70.9942 C.ar      11 UNK        -0.0687 
     10 C10       -79.2375   29.6234  -72.3563 C.ar      11 UNK        -0.0823 
     11 C11       -78.0365   29.3363  -73.0113 C.ar      11 UNK        -0.0830 
     12 C12       -76.9822   28.7713  -72.2866 C.ar      11 UNK        -0.1021 
     13 C13       -77.0980   28.5436  -70.9150 C.ar      11 UNK        -0.0753 
     14 C14       -78.3072   28.8274  -70.2739 C.ar      11 UNK        -0.0933 
     15 C15       -75.9220   27.9831  -70.1297 C.3       11 UNK         0.0166 
     16 S16       -74.9002   29.3241  -69.4357 S.3       11 UNK        -0.2615 
     17 C17       -73.4652   29.3733  -70.5687 C.3       11 UNK        -0.0865 
     18 CA        -73.6796   30.2549  -71.8383 C.3       10 UNK         0.0862 
     19 C         -73.5132   31.7758  -71.5655 C.2       10 UNK         0.5551 
     20 N         -74.3171   32.3428  -70.6786 N.am      10 UNK        -0.7319 
     21 O         -72.6635   32.4482  -72.1500 O.2       10 UNK        -0.5018 
     22 N         -72.8289   29.8540  -72.9661 N.am      10 UNK        -0.4509 
     23 C         -72.8122   28.6761  -73.5978 C.2       10 UNK         0.4899 
     24 O         -73.5255   27.7195  -73.2909 O.2       10 UNK        -0.4839 
     25 CA        -71.8155   28.5439  -74.7629 C.3       9 UNK         0.0222 
     26 CB        -70.4010   29.0246  -74.3620 C.3       9 UNK        -0.1966 
     27 N         -71.7669   27.1492  -75.2042 N.am      9 UNK        -0.4218 
     28 C         -71.1967   26.6924  -76.3266 C.2       9 UNK         0.5020 
     29 O         -70.7311   27.4204  -77.2043 O.2       9 UNK        -0.5274 
     30 CA        -71.0739   25.1698  -76.4810 C.3       8 UNK         0.0270 
     31 CB        -70.7073   24.4573  -75.1623 C.3       8 UNK        -0.1976 
     32 N         -72.3020   24.6017  -77.0284 N.am      8 UNK        -0.4313 
     33 C         -72.3558   23.5358  -77.8368 C.2       8 UNK         0.5041 
     34 O         -71.3603   22.9529  -78.2707 O.2       8 UNK        -0.5577 
     35 CA        -73.7506   23.0075  -78.2141 C.3       7 UNK         0.0284 
     36 CB        -74.3314   22.1560  -77.0735 C.3       7 UNK        -0.1958 
     37 N         -74.6969   24.0672  -78.5631 N.am      7 UNK        -0.4454 
     38 C         -74.6366   24.8051  -79.6807 C.2       7 UNK         0.5089 
     39 O         -73.7868   24.6571  -80.5595 O.2       7 UNK        -0.5125 
     40 CA        -75.7018   25.9035  -79.8391 C.3       6 UNK         0.0408 
     41 CB        -77.0172   25.3250  -80.3852 C.3       6 UNK        -0.1791 
     42 N         -75.9493   26.5993  -78.5753 N.am      6 UNK        -0.4762 
     43 C         -75.0935   27.4729  -78.0236 C.2       6 UNK         0.5007 
     44 O         -74.0675   27.8646  -78.5788 O.2       6 UNK        -0.5032 
     45 CA        -75.4212   27.9837  -76.6090 C.3       5 UNK         0.0783 
     46 C46       -76.1659   29.3393  -76.6788 C.3       11 UNK        -0.0857 
     47 S47       -76.2750   30.1407  -75.0466 S.3       11 UNK        -0.2512 
     48 C48       -77.9217   29.5721  -74.5110 C.3       11 UNK         0.0225 
     49 N         -76.1399   26.9742  -75.8199 N.am      5 UNK        -0.4615 
     50 C         -75.5726   25.8631  -75.3301 C.2       4 UNK         0.5053 
     51 O         -74.3894   25.5754  -75.4949 O.2       4 UNK        -0.5105 
     52 CA        -76.4792   24.8686  -74.5877 C.3       4 UNK         0.0263 
     53 CB        -76.5353   25.1922  -73.0880 C.3       4 UNK        -0.1981 
     54 N         -77.8342   24.8013  -75.1405 N.am      4 UNK        -0.4224 
     55 C         -78.1148   24.3571  -76.3760 C.2       3 UNK         0.4895 
     56 O         -77.2547   23.9512  -77.1579 O.2       3 UNK        -0.5091 
     57 CA        -79.5820   24.3933  -76.8439 C.3       3 UNK         0.0250 
     58 CB        -80.2339   23.0145  -76.6565 C.3       3 UNK        -0.1996 
     59 N         -80.4010   25.4084  -76.1766 N.am      3 UNK        -0.4254 
     60 C         -80.1821   26.7298  -76.2249 C.2       2 UNK         0.5004 
     61 O         -79.2833   27.2485  -76.8888 O.2       2 UNK        -0.5226 
     62 CA        -81.0846   27.6219  -75.3502 C.3       2 UNK         0.0269 
     63 CB        -82.2692   28.1471  -76.1762 C.3       2 UNK        -0.1926 
     64 N         -81.5940   27.0097  -74.1128 N.am      2 UNK        -0.4687 
     65 C         -80.8731   26.3774  -73.1731 C.2       1 UNK         0.5165 
     66 O         -79.6710   26.1234  -73.2815 O.2       1 UNK        -0.5079 
     67 H67       -81.1497   22.0027  -69.7752 H         1 UNK         0.0900 
     68 H68       -81.7315   21.4809  -71.3587 H         1 UNK         0.0900 
     69 H69       -80.1556   22.2614  -71.2101 H         1 UNK         0.0900 
     70 H70       -80.2020   24.3976  -71.9353 H         1 UNK         0.2959 
     71 H71       -82.6897   25.8648  -72.1549 H         1 UNK         0.1079 
     72 H72       -80.3887   26.8934  -70.4072 H         1 UNK         0.0837 
     73 H73       -81.9697   26.4594  -69.8350 H         1 UNK         0.0837 
     74 H74       -80.9938   30.6470  -70.4210 H         1 UNK         0.0685 
     75 H75       -80.6435   29.4194  -69.2293 H         1 UNK         0.0685 
     76 H76       -80.0730   30.0291  -72.9102 H         1 UNK         0.1434 
     77 H77       -76.0645   28.5033  -72.7911 H         1 UNK         0.1329 
     78 H78       -78.4082   28.6311  -69.2153 H         1 UNK         0.1335 
     79 H79       -75.3211   27.3264  -70.7609 H         1 UNK         0.0680 
     80 H80       -76.2891   27.3624  -69.3111 H         1 UNK         0.0680 
     81 H81       -73.2268   28.3437  -70.8327 H         1 UNK         0.1032 
     82 H82       -72.5946   29.7217  -70.0102 H         1 UNK         0.1032 
     83 H83       -74.7011   30.1396  -72.1910 H         1 UNK         0.0461 
     84 H84       -74.9943   31.7849  -70.1796 H         1 UNK         0.3453 
     85 H85       -74.2289   33.3279  -70.4855 H         1 UNK         0.3453 
     86 H86       -72.2249   30.6005  -73.2868 H         1 UNK         0.2984 
     87 H87       -72.1868   29.1557  -75.5871 H         1 UNK         0.0554 
     88 H88       -70.3931   30.0813  -74.0939 H         1 UNK         0.0847 
     89 H89       -69.6883   28.9110  -75.1786 H         1 UNK         0.0847 
     90 H90       -70.0164   28.4660  -73.5078 H         1 UNK         0.0847 
     91 H91       -72.2428   26.5022  -74.5848 H         1 UNK         0.3141 
     92 H92       -70.2564   25.0034  -77.1862 H         1 UNK         0.0743 
     93 H93       -71.5308   24.4689  -74.4472 H         1 UNK         0.0784 
     94 H94       -70.4439   23.4148  -75.3421 H         1 UNK         0.0784 
     95 H95       -69.8463   24.9287  -74.6862 H         1 UNK         0.0784 
     96 H96       -73.1695   25.0073  -76.6754 H         1 UNK         0.3213 
     97 H97       -73.6347   22.3632  -79.0885 H         1 UNK         0.0855 
     98 H98       -74.4716   22.7409  -76.1644 H         1 UNK         0.0814 
     99 H99       -73.6660   21.3272  -76.8283 H         1 UNK         0.0814 
    100 H100      -75.2960   21.7284  -77.3481 H         1 UNK         0.0814 
    101 H101      -75.4824   24.2065  -77.9335 H         1 UNK         0.3105 
    102 H102      -75.3305   26.6299  -80.5654 H         1 UNK         0.0547 
    103 H103      -76.8572   24.8489  -81.3535 H         1 UNK         0.0837 
    104 H104      -77.4415   24.5716  -79.7218 H         1 UNK         0.0837 
    105 H105      -77.7649   26.1051  -80.5284 H         1 UNK         0.0837 
    106 H106      -76.7681   26.3246  -78.0502 H         1 UNK         0.3020 
    107 H107      -74.4604   28.1562  -76.1205 H         1 UNK         0.1245 
    108 H108      -77.1622   29.2212  -77.1098 H         1 UNK         0.0781 
    109 H109      -75.6350   30.0322  -77.3349 H         1 UNK         0.0781 
    110 H110      -78.1552   28.6286  -74.9964 H         1 UNK         0.0836 
    111 H111      -78.6645   30.2949  -74.8517 H         1 UNK         0.0836 
    112 H112      -77.1312   27.1154  -75.6904 H         1 UNK         0.3022 
    113 H113      -76.0303   23.8795  -74.6955 H         1 UNK         0.0747 
    114 H114      -77.0566   24.4124  -72.5332 H         1 UNK         0.0793 
    115 H115      -75.5325   25.2797  -72.6669 H         1 UNK         0.0793 
    116 H116      -77.0502   26.1326  -72.9007 H         1 UNK         0.0793 
    117 H117      -78.5829   25.1633  -74.5550 H         1 UNK         0.3047 
    118 H118      -79.5733   24.6272  -77.9106 H         1 UNK         0.0822 
    119 H119      -81.2418   22.9912  -77.0711 H         1 UNK         0.0807 
    120 H120      -80.2956   22.7365  -75.6034 H         1 UNK         0.0807 
    121 H121      -79.6590   22.2390  -77.1651 H         1 UNK         0.0807 
    122 H122      -81.1585   25.0759  -75.5981 H         1 UNK         0.2946 
    123 H123      -80.4864   28.4810  -75.0488 H         1 UNK         0.1144 
    124 H124      -81.9244   28.6325  -77.0907 H         1 UNK         0.0793 
    125 H125      -82.8462   28.8860  -75.6197 H         1 UNK         0.0793 
    126 H126      -82.9450   27.3426  -76.4691 H         1 UNK         0.0793 
    127 H127      -82.5756   27.1604  -73.9276 H         1 UNK         0.2896 
@<TRIPOS>BOND
     1    1    2 1    
     2    1   67 1    
     3    1   68 1    
     4    1   69 1    
     5    2    3 2    
     6    2    4 am   BACKBONE|DICT|INTERRES
     7    4    5 1    
     8    4   70 1    
     9    5    6 1    
    10    5   65 1    
    11    5   71 1    
    12    6    7 1    
    13    6   72 1    
    14    6   73 1    
    15    7    8 1    
    16    8    9 1    
    17    8   74 1    
    18    8   75 1    
    19    9   10 ar   
    20    9   14 ar   
    21   10   11 ar   
    22   10   76 1    
    23   11   12 ar   
    24   11   48 1    
    25   12   13 ar   
    26   12   77 1    
    27   13   14 ar   
    28   13   15 1    
    29   14   78 1    
    30   15   16 1    
    31   15   79 1    
    32   15   80 1    
    33   16   17 1    
    34   17   18 1    
    35   17   81 1    
    36   17   82 1    
    37   18   19 1    
    38   18   22 1    
    39   18   83 1    
    40   19   20 am   BACKBONE|DICT|INTERRES
    41   19   21 2    
    42   20   84 1    
    43   20   85 1    
    44   22   23 am   BACKBONE|DICT|INTERRES
    45   22   86 1    
    46   23   24 2    
    47   23   25 1    
    48   25   26 1    
    49   25   27 1    
    50   25   87 1    
    51   26   88 1    
    52   26   89 1    
    53   26   90 1    
    54   27   28 am   BACKBONE|DICT|INTERRES
    55   27   91 1    
    56   28   29 2    
    57   28   30 1    
    58   30   31 1    
    59   30   32 1    
    60   30   92 1    
    61   31   93 1    
    62   31   94 1    
    63   31   95 1    
    64   32   33 am   BACKBONE|DICT|INTERRES
    65   32   96 1    
    66   33   34 2    
    67   33   35 1    
    68   35   36 1    
    69   35   37 1    
    70   35   97 1    
    71   36   98 1    
    72   36   99 1    
    73   36  100 1    
    74   37   38 am   BACKBONE|DICT|INTERRES
    75   37  101 1    
    76   38   39 2    
    77   38   40 1    
    78   40   41 1    
    79   40   42 1    
    80   40  102 1    
    81   41  103 1    
    82   41  104 1    
    83   41  105 1    
    84   42   43 am   BACKBONE|DICT|INTERRES
    85   42  106 1    
    86   43   44 2    
    87   43   45 1    
    88   45   46 1    
    89   45   49 1    
    90   45  107 1    
    91   46   47 1    
    92   46  108 1    
    93   46  109 1    
    94   47   48 1    
    95   48  110 1    
    96   48  111 1    
    97   49   50 am   BACKBONE|DICT|INTERRES
    98   49  112 1    
    99   50   51 2    
   100   50   52 1    
   101   52   53 1    
   102   52   54 1    
   103   52  113 1    
   104   53  114 1    
   105   53  115 1    
   106   53  116 1    
   107   54   55 am   BACKBONE|DICT|INTERRES
   108   54  117 1    
   109   55   56 2    
   110   55   57 1    
   111   57   58 1    
   112   57   59 1    
   113   57  118 1    
   114   58  119 1    
   115   58  120 1    
   116   58  121 1    
   117   59   60 am   BACKBONE|DICT|INTERRES
   118   59  122 1    
   119   60   61 2    
   120   60   62 1    
   121   62   63 1    
   122   62   64 1    
   123   62  123 1    
   124   63  124 1    
   125   63  125 1    
   126   63  126 1    
   127   64   65 am   BACKBONE|DICT|INTERRES
   128   64  127 1    
   129   65   66 2    
@<TRIPOS>SUBSTRUCTURE
     1 UNK         1 GROUP             0       ****    0 ROOT    
