@<TRIPOS>MOLECULE
3R135
127   129    1
SMALL
USER_CHARGES


@<TRIPOS>ATOM
      1 CA        -82.5845   21.8761  -73.8611 C.3       0 UNK        -0.1998 
      2 C         -81.6908   23.0496  -73.4918 C.2       0 UNK         0.4909 
      3 O         -80.5106   23.0472  -73.8434 O.2       0 UNK        -0.5240 
      4 N         -82.2510   24.0564  -72.8025 N.am      1 UNK        -0.4739 
      5 CA        -81.5733   25.2734  -72.3303 C.3       1 UNK         0.0864 
      6 C6        -80.6128   24.9751  -71.1451 C.3       11 UNK        -0.0881 
      7 S7        -80.1589   26.4589  -70.1763 S.3       11 UNK        -0.2682 
      8 C8        -78.3455   26.5119  -70.4026 C.3       11 UNK         0.0289 
      9 C9        -77.8079   27.9137  -70.6606 C.ar      11 UNK        -0.0687 
     10 C10       -78.4103   28.7341  -71.6174 C.ar      11 UNK        -0.0823 
     11 C11       -77.8730   29.9845  -71.9273 C.ar      11 UNK        -0.0830 
     12 C12       -76.7420   30.4349  -71.2443 C.ar      11 UNK        -0.1021 
     13 C13       -76.1137   29.6183  -70.3004 C.ar      11 UNK        -0.0753 
     14 C14       -76.6544   28.3610  -70.0075 C.ar      11 UNK        -0.0933 
     15 C15       -74.8339   30.0808  -69.6209 C.3       11 UNK         0.0166 
     16 S16       -73.3620   29.6603  -70.6116 S.3       11 UNK        -0.2615 
     17 C17       -73.3549   30.9761  -71.8835 C.3       11 UNK        -0.0865 
     18 CA        -73.8346   30.4937  -73.2865 C.3       10 UNK         0.0862 
     19 C         -73.9675   31.6541  -74.3199 C.2       10 UNK         0.5551 
     20 N         -74.0553   31.3577  -75.6103 N.am      10 UNK        -0.7319 
     21 O         -74.0025   32.8280  -73.9573 O.2       10 UNK        -0.5018 
     22 N         -73.0742   29.3351  -73.7857 N.am      10 UNK        -0.4509 
     23 C         -71.7753   29.3298  -74.1139 C.2       10 UNK         0.4899 
     24 O         -71.0494   30.3241  -74.0676 O.2       10 UNK        -0.4839 
     25 CA        -71.1835   27.9697  -74.5202 C.3       9 UNK         0.0222 
     26 CB        -69.6419   27.9471  -74.4191 C.3       9 UNK        -0.1966 
     27 N         -71.7622   26.9195  -73.6786 N.am      9 UNK        -0.4218 
     28 C         -71.9422   25.6237  -73.9618 C.2       9 UNK         0.5020 
     29 O         -72.4942   24.8688  -73.1617 O.2       9 UNK        -0.5274 
     30 CA        -71.4476   25.0418  -75.2975 C.3       8 UNK         0.0270 
     31 CB        -70.7374   23.6879  -75.0692 C.3       8 UNK        -0.1976 
     32 N         -72.5818   24.8855  -76.2084 N.am      8 UNK        -0.4313 
     33 C         -72.4642   24.6022  -77.5126 C.2       8 UNK         0.5041 
     34 O         -71.3846   24.5370  -78.1038 O.2       8 UNK        -0.5577 
     35 CA        -73.7522   24.3031  -78.2944 C.3       7 UNK         0.0284 
     36 CB        -74.3597   22.9618  -77.8521 C.3       7 UNK        -0.1958 
     37 N         -74.7571   25.3640  -78.2163 N.am      7 UNK        -0.4454 
     38 C         -74.6373   26.5624  -78.8053 C.2       7 UNK         0.5089 
     39 O         -73.6343   26.9311  -79.4175 O.2       7 UNK        -0.5125 
     40 CA        -75.8545   27.5007  -78.7357 C.3       6 UNK         0.0408 
     41 CB        -76.8995   27.1130  -79.7940 C.3       6 UNK        -0.1791 
     42 N         -76.4873   27.5197  -77.4194 N.am      6 UNK        -0.4762 
     43 C         -75.9500   28.0822  -76.3276 C.2       6 UNK         0.5007 
     44 O         -74.8658   28.6674  -76.3114 O.2       6 UNK        -0.5032 
     45 CA        -76.7582   27.9249  -75.0237 C.3       5 UNK         0.0783 
     46 C46       -77.9930   28.8679  -75.0338 C.3       11 UNK        -0.0857 
     47 S47       -77.5937   30.5963  -74.6051 S.3       11 UNK        -0.2512 
     48 C48       -78.4858   30.8273  -73.0327 C.3       11 UNK         0.0225 
     49 N         -77.1329   26.5235  -74.7776 N.am      5 UNK        -0.4615 
     50 C         -76.2980   25.4702  -74.7779 C.2       4 UNK         0.5053 
     51 O         -75.0786   25.5557  -74.9164 O.2       4 UNK        -0.5105 
     52 CA        -76.9279   24.0700  -74.6771 C.3       4 UNK         0.0263 
     53 CB        -77.1435   23.6588  -73.2168 C.3       4 UNK        -0.1981 
     54 N         -78.1849   23.9547  -75.4192 N.am      4 UNK        -0.4224 
     55 C         -78.2817   24.0700  -76.7521 C.2       3 UNK         0.4895 
     56 O         -77.3177   24.2349  -77.4989 O.2       3 UNK        -0.5091 
     57 CA        -79.6970   24.0666  -77.3467 C.3       3 UNK         0.0250 
     58 CB        -80.2934   22.6499  -77.3705 C.3       3 UNK        -0.1996 
     59 N         -80.5825   24.9807  -76.6238 N.am      3 UNK        -0.4254 
     60 C         -80.4437   26.3146  -76.6268 C.2       2 UNK         0.5004 
     61 O         -79.5986   26.9122  -77.2944 O.2       2 UNK        -0.5226 
     62 CA        -81.3877   27.1180  -75.7145 C.3       2 UNK         0.0269 
     63 CB        -82.6496   27.5359  -76.4854 C.3       2 UNK        -0.1926 
     64 N         -81.7780   26.4097  -74.4895 N.am      2 UNK        -0.4687 
     65 C         -80.9356   26.0435  -73.5110 C.2       1 UNK         0.5165 
     66 O         -79.7208   26.2385  -73.5585 O.2       1 UNK        -0.5079 
     67 H67       -82.6420   21.7746  -74.9444 H         1 UNK         0.0900 
     68 H68       -83.5970   21.9960  -73.4763 H         1 UNK         0.0900 
     69 H69       -82.1742   20.9524  -73.4540 H         1 UNK         0.0900 
     70 H70       -83.2316   23.9935  -72.5641 H         1 UNK         0.2959 
     71 H71       -82.3628   25.9220  -71.9465 H         1 UNK         0.1079 
     72 H72       -81.1070   24.2970  -70.4478 H         1 UNK         0.0837 
     73 H73       -79.7311   24.4339  -71.4832 H         1 UNK         0.0837 
     74 H74       -77.8737   26.0676  -69.5250 H         1 UNK         0.0685 
     75 H75       -78.0508   25.9023  -71.2536 H         1 UNK         0.0685 
     76 H76       -79.2859   28.3811  -72.1424 H         1 UNK         0.1434 
     77 H77       -76.3255   31.4034  -71.4835 H         1 UNK         0.1329 
     78 H78       -76.1608   27.7216  -69.2884 H         1 UNK         0.1335 
     79 H79       -74.8665   31.1544  -69.4297 H         1 UNK         0.0680 
     80 H80       -74.7425   29.6042  -68.6437 H         1 UNK         0.0680 
     81 H81       -72.3418   31.3754  -71.9507 H         1 UNK         0.1032 
     82 H82       -73.9679   31.8081  -71.5347 H         1 UNK         0.1032 
     83 H83       -74.8518   30.1259  -73.1660 H         1 UNK         0.0461 
     84 H84       -74.1213   30.3883  -75.9062 H         1 UNK         0.3453 
     85 H85       -74.1447   32.0997  -76.2849 H         1 UNK         0.3453 
     86 H86       -73.6036   28.4860  -73.9178 H         1 UNK         0.2984 
     87 H87       -71.4823   27.8122  -75.5582 H         1 UNK         0.0554 
     88 H88       -69.2177   26.9774  -74.6747 H         1 UNK         0.0847 
     89 H89       -69.3071   28.1933  -73.4106 H         1 UNK         0.0847 
     90 H90       -69.1967   28.6778  -75.0956 H         1 UNK         0.0847 
     91 H91       -72.0924   27.2460  -72.7801 H         1 UNK         0.3141 
     92 H92       -70.7258   25.7097  -75.7635 H         1 UNK         0.0743 
     93 H93       -70.2656   23.3192  -75.9798 H         1 UNK         0.0784 
     94 H94       -69.9503   23.7828  -74.3200 H         1 UNK         0.0784 
     95 H95       -71.4309   22.9219  -74.7201 H         1 UNK         0.0784 
     96 H96       -73.5058   24.9981  -75.7891 H         1 UNK         0.3213 
     97 H97       -73.4734   24.1995  -79.3455 H         1 UNK         0.0855 
     98 H98       -75.2123   22.6881  -78.4738 H         1 UNK         0.0814 
     99 H99       -74.6962   22.9918  -76.8166 H         1 UNK         0.0814 
    100 H100      -73.6285   22.1564  -77.9335 H         1 UNK         0.0814 
    101 H101      -75.6436   25.1223  -77.7798 H         1 UNK         0.3105 
    102 H102      -75.5090   28.5126  -78.9583 H         1 UNK         0.0547 
    103 H103      -76.4613   27.1088  -80.7929 H         1 UNK         0.0837 
    104 H104      -77.3100   26.1188  -79.6123 H         1 UNK         0.0837 
    105 H105      -77.7307   27.8183  -79.8069 H         1 UNK         0.0837 
    106 H106      -77.3905   27.0649  -77.3372 H         1 UNK         0.3020 
    107 H107      -76.1096   28.2097  -74.1933 H         1 UNK         0.1245 
    108 H108      -78.7468   28.5080  -74.3387 H         1 UNK         0.0781 
    109 H109      -78.4893   28.8721  -76.0050 H         1 UNK         0.0781 
    110 H110      -79.5411   30.5849  -73.1684 H         1 UNK         0.0836 
    111 H111      -78.4484   31.8818  -72.7553 H         1 UNK         0.0836 
    112 H112      -78.1135   26.3508  -74.5714 H         1 UNK         0.3022 
    113 H113      -76.2220   23.3628  -75.1147 H         1 UNK         0.0747 
    114 H114      -76.2295   23.7762  -72.6327 H         1 UNK         0.0793 
    115 H115      -77.9152   24.2668  -72.7543 H         1 UNK         0.0793 
    116 H116      -77.4520   22.6161  -73.1403 H         1 UNK         0.0793 
    117 H117      -79.0295   23.8040  -74.8719 H         1 UNK         0.3047 
    118 H118      -79.6230   24.4175  -78.3785 H         1 UNK         0.0822 
    119 H119      -81.2808   22.6427  -77.8322 H         1 UNK         0.0807 
    120 H120      -80.3868   22.2262  -76.3708 H         1 UNK         0.0807 
    121 H121      -79.6613   21.9749  -77.9493 H         1 UNK         0.0807 
    122 H122      -81.2799   24.5701  -76.0210 H         1 UNK         0.2946 
    123 H123      -80.8574   28.0250  -75.4188 H         1 UNK         0.1144 
    124 H124      -83.2844   28.1880  -75.8851 H         1 UNK         0.0793 
    125 H125      -83.2438   26.6728  -76.7883 H         1 UNK         0.0793 
    126 H126      -82.3888   28.0859  -77.3909 H         1 UNK         0.0793 
    127 H127      -82.7575   26.1839  -74.3897 H         1 UNK         0.2896 
@<TRIPOS>BOND
     1    1    2 1    
     2    1   67 1    
     3    1   68 1    
     4    1   69 1    
     5    2    3 2    
     6    2    4 am   BACKBONE|DICT|INTERRES
     7    4    5 1    
     8    4   70 1    
     9    5    6 1    
    10    5   65 1    
    11    5   71 1    
    12    6    7 1    
    13    6   72 1    
    14    6   73 1    
    15    7    8 1    
    16    8    9 1    
    17    8   74 1    
    18    8   75 1    
    19    9   10 ar   
    20    9   14 ar   
    21   10   11 ar   
    22   10   76 1    
    23   11   12 ar   
    24   11   48 1    
    25   12   13 ar   
    26   12   77 1    
    27   13   14 ar   
    28   13   15 1    
    29   14   78 1    
    30   15   16 1    
    31   15   79 1    
    32   15   80 1    
    33   16   17 1    
    34   17   18 1    
    35   17   81 1    
    36   17   82 1    
    37   18   19 1    
    38   18   22 1    
    39   18   83 1    
    40   19   20 am   BACKBONE|DICT|INTERRES
    41   19   21 2    
    42   20   84 1    
    43   20   85 1    
    44   22   23 am   BACKBONE|DICT|INTERRES
    45   22   86 1    
    46   23   24 2    
    47   23   25 1    
    48   25   26 1    
    49   25   27 1    
    50   25   87 1    
    51   26   88 1    
    52   26   89 1    
    53   26   90 1    
    54   27   28 am   BACKBONE|DICT|INTERRES
    55   27   91 1    
    56   28   29 2    
    57   28   30 1    
    58   30   31 1    
    59   30   32 1    
    60   30   92 1    
    61   31   93 1    
    62   31   94 1    
    63   31   95 1    
    64   32   33 am   BACKBONE|DICT|INTERRES
    65   32   96 1    
    66   33   34 2    
    67   33   35 1    
    68   35   36 1    
    69   35   37 1    
    70   35   97 1    
    71   36   98 1    
    72   36   99 1    
    73   36  100 1    
    74   37   38 am   BACKBONE|DICT|INTERRES
    75   37  101 1    
    76   38   39 2    
    77   38   40 1    
    78   40   41 1    
    79   40   42 1    
    80   40  102 1    
    81   41  103 1    
    82   41  104 1    
    83   41  105 1    
    84   42   43 am   BACKBONE|DICT|INTERRES
    85   42  106 1    
    86   43   44 2    
    87   43   45 1    
    88   45   46 1    
    89   45   49 1    
    90   45  107 1    
    91   46   47 1    
    92   46  108 1    
    93   46  109 1    
    94   47   48 1    
    95   48  110 1    
    96   48  111 1    
    97   49   50 am   BACKBONE|DICT|INTERRES
    98   49  112 1    
    99   50   51 2    
   100   50   52 1    
   101   52   53 1    
   102   52   54 1    
   103   52  113 1    
   104   53  114 1    
   105   53  115 1    
   106   53  116 1    
   107   54   55 am   BACKBONE|DICT|INTERRES
   108   54  117 1    
   109   55   56 2    
   110   55   57 1    
   111   57   58 1    
   112   57   59 1    
   113   57  118 1    
   114   58  119 1    
   115   58  120 1    
   116   58  121 1    
   117   59   60 am   BACKBONE|DICT|INTERRES
   118   59  122 1    
   119   60   61 2    
   120   60   62 1    
   121   62   63 1    
   122   62   64 1    
   123   62  123 1    
   124   63  124 1    
   125   63  125 1    
   126   63  126 1    
   127   64   65 am   BACKBONE|DICT|INTERRES
   128   64  127 1    
   129   65   66 2    
@<TRIPOS>SUBSTRUCTURE
     1 UNK         1 GROUP             0       ****    0 ROOT    
