@<TRIPOS>MOLECULE
3R135
127   129    1
SMALL
USER_CHARGES


@<TRIPOS>ATOM
      1 CA        -81.4312   24.3228  -70.8444 C.3       0 UNK        -0.1998 
      2 C         -81.8379   24.9403  -72.1741 C.2       0 UNK         0.4909 
      3 O         -82.7227   24.4142  -72.8503 O.2       0 UNK        -0.5240 
      4 N         -81.1994   26.0554  -72.5484 N.am      1 UNK        -0.4739 
      5 CA        -81.3952   26.7554  -73.8246 C.3       1 UNK         0.0864 
      6 C6        -80.8012   28.1840  -73.7813 C.3       11 UNK        -0.0881 
      7 S7        -81.4873   29.1930  -72.4229 S.3       11 UNK        -0.2682 
      8 C8        -80.2572   30.5374  -72.2857 C.3       11 UNK         0.0289 
      9 C9        -78.8342   30.0450  -72.0358 C.ar      11 UNK        -0.0687 
     10 C10       -78.5704   29.0733  -71.0647 C.ar      11 UNK        -0.0823 
     11 C11       -77.2728   28.5904  -70.8746 C.ar      11 UNK        -0.0830 
     12 C12       -76.2267   29.1121  -71.6407 C.ar      11 UNK        -0.1021 
     13 C13       -76.4705   30.1001  -72.5982 C.ar      11 UNK        -0.0753 
     14 C14       -77.7764   30.5611  -72.7912 C.ar      11 UNK        -0.0933 
     15 C15       -75.3376   30.6337  -73.4627 C.3       11 UNK         0.0166 
     16 S16       -74.3325   31.8770  -72.5931 S.3       11 UNK        -0.2615 
     17 C17       -72.9574   30.8620  -71.9465 C.3       11 UNK        -0.0865 
     18 CA        -71.6953   30.9399  -72.8442 C.3       10 UNK         0.0862 
     19 C         -70.5056   30.1923  -72.1872 C.2       10 UNK         0.5551 
     20 N         -69.5723   30.9146  -71.5832 N.am      10 UNK        -0.7319 
     21 O         -70.4513   28.9643  -72.1798 O.2       10 UNK        -0.5018 
     22 N         -71.9682   30.4299  -74.1938 N.am      10 UNK        -0.4509 
     23 C         -71.2237   30.6731  -75.2776 C.2       10 UNK         0.4899 
     24 O         -70.2281   31.3994  -75.2798 O.2       10 UNK        -0.4839 
     25 CA        -71.6994   29.9958  -76.5778 C.3       9 UNK         0.0222 
     26 CB        -70.6984   30.1418  -77.7440 C.3       9 UNK        -0.1966 
     27 N         -72.0805   28.5917  -76.3770 N.am      9 UNK        -0.4218 
     28 C         -71.2847   27.5830  -75.9783 C.2       9 UNK         0.5020 
     29 O         -70.0820   27.7083  -75.7439 O.2       9 UNK        -0.5274 
     30 CA        -71.9241   26.1903  -75.8027 C.3       8 UNK         0.0270 
     31 CB        -72.0396   25.8408  -74.3095 C.3       8 UNK        -0.1976 
     32 N         -73.2406   26.0716  -76.4376 N.am      8 UNK        -0.4313 
     33 C         -73.4308   25.9839  -77.7639 C.2       8 UNK         0.5041 
     34 O         -72.5063   25.8776  -78.5710 O.2       8 UNK        -0.5577 
     35 CA        -74.8752   26.0525  -78.3030 C.3       7 UNK         0.0284 
     36 CB        -75.3209   24.6831  -78.8362 C.3       7 UNK        -0.1958 
     37 N         -75.8776   26.5452  -77.3526 N.am      7 UNK        -0.4454 
     38 C         -75.8723   27.7497  -76.7685 C.2       7 UNK         0.5089 
     39 O         -75.0139   28.6100  -76.9720 O.2       7 UNK        -0.5125 
     40 CA        -76.9578   27.9983  -75.7103 C.3       6 UNK         0.0408 
     41 CB        -78.2258   28.5962  -76.3385 C.3       6 UNK        -0.1791 
     42 N         -77.2515   26.8151  -74.8798 N.am      6 UNK        -0.4762 
     43 C         -76.3446   26.2840  -74.0395 C.2       6 UNK         0.5007 
     44 O         -75.1894   26.7035  -73.9626 O.2       6 UNK        -0.5032 
     45 CA        -76.7428   25.0825  -73.1629 C.3       5 UNK         0.0783 
     46 C46       -77.4337   25.5024  -71.8386 C.3       11 UNK        -0.0857 
     47 S47       -76.2273   26.0163  -70.5683 S.3       11 UNK        -0.2512 
     48 C48       -77.0087   27.4979  -69.8468 C.3       11 UNK         0.0225 
     49 N         -77.5316   24.0877  -73.8902 N.am      5 UNK        -0.4615 
     50 C         -77.3949   22.7666  -73.7195 C.2       4 UNK         0.5053 
     51 O         -76.5186   22.2495  -73.0256 O.2       4 UNK        -0.5105 
     52 CA        -78.4200   21.8574  -74.4127 C.3       4 UNK         0.0263 
     53 CB        -79.6907   21.7258  -73.5571 C.3       4 UNK        -0.1981 
     54 N         -78.7817   22.3173  -75.7521 N.am      4 UNK        -0.4224 
     55 C         -78.0050   22.1844  -76.8362 C.2       3 UNK         0.4895 
     56 O         -76.8815   21.6809  -76.8139 O.2       3 UNK        -0.5091 
     57 CA        -78.5819   22.6566  -78.1839 C.3       3 UNK         0.0250 
     58 CB        -79.0119   21.4493  -79.0337 C.3       3 UNK        -0.1996 
     59 N         -79.7174   23.5724  -78.0528 N.am      3 UNK        -0.4254 
     60 C         -79.6302   24.8498  -77.6592 C.2       2 UNK         0.5004 
     61 O         -78.5589   25.4006  -77.3993 O.2       2 UNK        -0.5226 
     62 CA        -80.9565   25.6389  -77.5266 C.3       2 UNK         0.0269 
     63 CB        -82.2101   24.8124  -77.8913 C.3       2 UNK        -0.1926 
     64 N         -81.2030   26.3021  -76.2319 N.am      2 UNK        -0.4687 
     65 C         -80.8007   25.9468  -75.0010 C.2       1 UNK         0.5165 
     66 O         -79.9806   25.0563  -74.7692 O.2       1 UNK        -0.5079 
     67 H67       -80.6357   24.8876  -70.3582 H         1 UNK         0.0900 
     68 H68       -82.2857   24.2896  -70.1690 H         1 UNK         0.0900 
     69 H69       -81.0772   23.3036  -70.9974 H         1 UNK         0.0900 
     70 H70       -80.4982   26.4530  -71.9429 H         1 UNK         0.2959 
     71 H71       -82.4713   26.8340  -73.9960 H         1 UNK         0.1079 
     72 H72       -79.7175   28.1261  -73.6715 H         1 UNK         0.0837 
     73 H73       -80.9969   28.7150  -74.7143 H         1 UNK         0.0837 
     74 H74       -80.3025   31.1362  -73.1967 H         1 UNK         0.0685 
     75 H75       -80.5479   31.1973  -71.4674 H         1 UNK         0.0685 
     76 H76       -79.3843   28.6777  -70.4728 H         1 UNK         0.1434 
     77 H77       -75.2269   28.7265  -71.5042 H         1 UNK         0.1329 
     78 H78       -77.9706   31.3146  -73.5423 H         1 UNK         0.1335 
     79 H79       -74.7147   29.8057  -73.8029 H         1 UNK         0.0680 
     80 H80       -75.7408   31.0924  -74.3670 H         1 UNK         0.0680 
     81 H81       -72.7281   31.2288  -70.9441 H         1 UNK         0.1032 
     82 H82       -73.2753   29.8269  -71.8177 H         1 UNK         0.1032 
     83 H83       -71.4239   31.9936  -72.9410 H         1 UNK         0.0461 
     84 H84       -69.6148   31.9220  -71.5782 H         1 UNK         0.3453 
     85 H85       -68.8012   30.4439  -71.1358 H         1 UNK         0.3453 
     86 H86       -72.7403   29.7881  -74.2781 H         1 UNK         0.2984 
     87 H87       -72.6143   30.5138  -76.8696 H         1 UNK         0.0554 
     88 H88       -71.0736   29.6671  -78.6506 H         1 UNK         0.0847 
     89 H89       -69.7308   29.6978  -77.5086 H         1 UNK         0.0847 
     90 H90       -70.5231   31.1926  -77.9779 H         1 UNK         0.0847 
     91 H91       -73.0613   28.3882  -76.5497 H         1 UNK         0.3141 
     92 H92       -71.2560   25.4623  -76.2678 H         1 UNK         0.0743 
     93 H93       -72.6029   26.5951  -73.7593 H         1 UNK         0.0784 
     94 H94       -72.5256   24.8769  -74.1576 H         1 UNK         0.0784 
     95 H95       -71.0524   25.7833  -73.8489 H         1 UNK         0.0784 
     96 H96       -74.0458   26.1730  -75.8310 H         1 UNK         0.3213 
     97 H97       -74.8582   26.7515  -79.1418 H         1 UNK         0.0855 
     98 H98       -75.4482   23.9586  -78.0308 H         1 UNK         0.0814 
     99 H99       -74.5893   24.2726  -79.5337 H         1 UNK         0.0814 
    100 H100      -76.2638   24.7667  -79.3758 H         1 UNK         0.0814 
    101 H101      -76.6791   25.9454  -77.1718 H         1 UNK         0.3105 
    102 H102      -76.5568   28.7612  -75.0457 H         1 UNK         0.0547 
    103 H103      -77.9727   29.3574  -77.0779 H         1 UNK         0.0837 
    104 H104      -78.8362   27.8512  -76.8433 H         1 UNK         0.0837 
    105 H105      -78.8369   29.0924  -75.5885 H         1 UNK         0.0837 
    106 H106      -78.1607   26.3844  -74.9825 H         1 UNK         0.3020 
    107 H107      -75.7909   24.6123  -72.9029 H         1 UNK         0.1245 
    108 H108      -77.9837   24.6601  -71.4156 H         1 UNK         0.0781 
    109 H109      -78.1789   26.2788  -72.0150 H         1 UNK         0.0781 
    110 H110      -76.3563   27.8964  -69.0687 H         1 UNK         0.0836 
    111 H111      -77.9318   27.1979  -69.3484 H         1 UNK         0.0836 
    112 H112      -78.3286   24.4263  -74.4261 H         1 UNK         0.3022 
    113 H113      -77.9724   20.8648  -74.5017 H         1 UNK         0.0747 
    114 H114      -80.3853   21.0044  -73.9874 H         1 UNK         0.0793 
    115 H115      -79.4504   21.3826  -72.5499 H         1 UNK         0.0793 
    116 H116      -80.2140   22.6773  -73.4613 H         1 UNK         0.0793 
    117 H117      -79.6651   22.7983  -75.8451 H         1 UNK         0.3047 
    118 H118      -77.7847   23.1746  -78.7165 H         1 UNK         0.0822 
    119 H119      -79.3537   21.7599  -80.0212 H         1 UNK         0.0807 
    120 H120      -79.8171   20.8867  -78.5594 H         1 UNK         0.0807 
    121 H121      -78.1788   20.7610  -79.1842 H         1 UNK         0.0807 
    122 H122      -80.6317   23.1925  -78.2514 H         1 UNK         0.2946 
    123 H123      -80.8737   26.4411  -78.2619 H         1 UNK         0.1144 
    124 H124      -83.1042   25.4362  -77.8842 H         1 UNK         0.0793 
    125 H125      -82.3779   23.9969  -77.1862 H         1 UNK         0.0793 
    126 H126      -82.1390   24.3880  -78.8939 H         1 UNK         0.0793 
    127 H127      -81.8283   27.0935  -76.2921 H         1 UNK         0.2896 
@<TRIPOS>BOND
     1    1    2 1    
     2    1   67 1    
     3    1   68 1    
     4    1   69 1    
     5    2    3 2    
     6    2    4 am   BACKBONE|DICT|INTERRES
     7    4    5 1    
     8    4   70 1    
     9    5    6 1    
    10    5   65 1    
    11    5   71 1    
    12    6    7 1    
    13    6   72 1    
    14    6   73 1    
    15    7    8 1    
    16    8    9 1    
    17    8   74 1    
    18    8   75 1    
    19    9   10 ar   
    20    9   14 ar   
    21   10   11 ar   
    22   10   76 1    
    23   11   12 ar   
    24   11   48 1    
    25   12   13 ar   
    26   12   77 1    
    27   13   14 ar   
    28   13   15 1    
    29   14   78 1    
    30   15   16 1    
    31   15   79 1    
    32   15   80 1    
    33   16   17 1    
    34   17   18 1    
    35   17   81 1    
    36   17   82 1    
    37   18   19 1    
    38   18   22 1    
    39   18   83 1    
    40   19   20 am   BACKBONE|DICT|INTERRES
    41   19   21 2    
    42   20   84 1    
    43   20   85 1    
    44   22   23 am   BACKBONE|DICT|INTERRES
    45   22   86 1    
    46   23   24 2    
    47   23   25 1    
    48   25   26 1    
    49   25   27 1    
    50   25   87 1    
    51   26   88 1    
    52   26   89 1    
    53   26   90 1    
    54   27   28 am   BACKBONE|DICT|INTERRES
    55   27   91 1    
    56   28   29 2    
    57   28   30 1    
    58   30   31 1    
    59   30   32 1    
    60   30   92 1    
    61   31   93 1    
    62   31   94 1    
    63   31   95 1    
    64   32   33 am   BACKBONE|DICT|INTERRES
    65   32   96 1    
    66   33   34 2    
    67   33   35 1    
    68   35   36 1    
    69   35   37 1    
    70   35   97 1    
    71   36   98 1    
    72   36   99 1    
    73   36  100 1    
    74   37   38 am   BACKBONE|DICT|INTERRES
    75   37  101 1    
    76   38   39 2    
    77   38   40 1    
    78   40   41 1    
    79   40   42 1    
    80   40  102 1    
    81   41  103 1    
    82   41  104 1    
    83   41  105 1    
    84   42   43 am   BACKBONE|DICT|INTERRES
    85   42  106 1    
    86   43   44 2    
    87   43   45 1    
    88   45   46 1    
    89   45   49 1    
    90   45  107 1    
    91   46   47 1    
    92   46  108 1    
    93   46  109 1    
    94   47   48 1    
    95   48  110 1    
    96   48  111 1    
    97   49   50 am   BACKBONE|DICT|INTERRES
    98   49  112 1    
    99   50   51 2    
   100   50   52 1    
   101   52   53 1    
   102   52   54 1    
   103   52  113 1    
   104   53  114 1    
   105   53  115 1    
   106   53  116 1    
   107   54   55 am   BACKBONE|DICT|INTERRES
   108   54  117 1    
   109   55   56 2    
   110   55   57 1    
   111   57   58 1    
   112   57   59 1    
   113   57  118 1    
   114   58  119 1    
   115   58  120 1    
   116   58  121 1    
   117   59   60 am   BACKBONE|DICT|INTERRES
   118   59  122 1    
   119   60   61 2    
   120   60   62 1    
   121   62   63 1    
   122   62   64 1    
   123   62  123 1    
   124   63  124 1    
   125   63  125 1    
   126   63  126 1    
   127   64   65 am   BACKBONE|DICT|INTERRES
   128   64  127 1    
   129   65   66 2    
@<TRIPOS>SUBSTRUCTURE
     1 UNK         1 GROUP             0       ****    0 ROOT    
