@<TRIPOS>MOLECULE
3R135
127   129    1
SMALL
USER_CHARGES


@<TRIPOS>ATOM
      1 CA        -77.9364   27.9875  -76.0963 C.3       0 UNK        -0.1998 
      2 C         -78.9772   27.2990  -75.2296 C.2       0 UNK         0.4909 
      3 O         -78.8338   26.1213  -74.8976 O.2       0 UNK        -0.5240 
      4 N         -80.0319   28.0296  -74.8574 N.am      1 UNK        -0.4739 
      5 CA        -81.1824   27.5206  -74.1075 C.3       1 UNK         0.0864 
      6 C6        -81.9882   28.6755  -73.4607 C.3       11 UNK        -0.0881 
      7 S7        -81.2839   29.1978  -71.8581 S.3       11 UNK        -0.2682 
      8 C8        -79.8058   30.1608  -72.3325 C.3       11 UNK         0.0289 
      9 C9        -78.5499   29.6644  -71.6207 C.ar      11 UNK        -0.0687 
     10 C10       -78.1744   28.3168  -71.6794 C.ar      11 UNK        -0.0823 
     11 C11       -77.0535   27.8548  -70.9821 C.ar      11 UNK        -0.0830 
     12 C12       -76.2876   28.7590  -70.2404 C.ar      11 UNK        -0.1021 
     13 C13       -76.6295   30.1138  -70.2012 C.ar      11 UNK        -0.0753 
     14 C14       -77.7625   30.5585  -70.8893 C.ar      11 UNK        -0.0933 
     15 C15       -75.8006   31.0993  -69.3921 C.3       11 UNK         0.0166 
     16 S16       -74.5507   31.9307  -70.4204 S.3       11 UNK        -0.2615 
     17 C17       -73.1655   30.7441  -70.3491 C.3       11 UNK        -0.0865 
     18 CA        -72.3500   30.6982  -71.6674 C.3       10 UNK         0.0862 
     19 C         -71.0123   29.9211  -71.4712 C.2       10 UNK         0.5551 
     20 N         -70.7241   28.8605  -72.2168 N.am      10 UNK        -0.7319 
     21 O         -70.2086   30.2981  -70.6218 O.2       10 UNK        -0.5018 
     22 N         -73.1658   30.2290  -72.7996 N.am      10 UNK        -0.4509 
     23 C         -72.8919   30.4914  -74.0817 C.2       10 UNK         0.4899 
     24 O         -72.0046   31.2603  -74.4587 O.2       10 UNK        -0.4839 
     25 CA        -73.7348   29.7432  -75.1270 C.3       9 UNK         0.0222 
     26 CB        -74.6516   30.7062  -75.8972 C.3       9 UNK        -0.1966 
     27 N         -72.8780   29.0195  -76.0691 N.am      9 UNK        -0.4218 
     28 C         -72.0291   28.0350  -75.7437 C.2       9 UNK         0.5020 
     29 O         -71.9105   27.5898  -74.5994 O.2       9 UNK        -0.5274 
     30 CA        -71.1715   27.4563  -76.8871 C.3       8 UNK         0.0270 
     31 CB        -70.2420   26.3227  -76.4142 C.3       8 UNK        -0.1976 
     32 N         -71.9902   26.9577  -77.9927 N.am      8 UNK        -0.4313 
     33 C         -72.5737   27.6966  -78.9418 C.2       8 UNK         0.5041 
     34 O         -72.4875   28.9247  -78.9916 O.2       8 UNK        -0.5577 
     35 CA        -73.4178   26.9520  -79.9932 C.3       7 UNK         0.0284 
     36 CB        -72.5301   26.1675  -80.9802 C.3       7 UNK        -0.1958 
     37 N         -74.4728   26.1091  -79.4108 N.am      7 UNK        -0.4454 
     38 C         -74.3451   25.0145  -78.6481 C.2       7 UNK         0.5089 
     39 O         -73.2702   24.4738  -78.3754 O.2       7 UNK        -0.5125 
     40 CA        -75.6463   24.4548  -78.0475 C.3       6 UNK         0.0408 
     41 CB        -75.9530   23.0613  -78.6180 C.3       6 UNK        -0.1791 
     42 N         -75.5977   24.3822  -76.5836 N.am      6 UNK        -0.4762 
     43 C         -75.3301   25.4070  -75.7570 C.2       6 UNK         0.5007 
     44 O         -75.0910   26.5491  -76.1486 O.2       6 UNK        -0.5032 
     45 CA        -75.4136   25.1111  -74.2481 C.3       5 UNK         0.0783 
     46 C46       -75.2118   26.3831  -73.3827 C.3       11 UNK        -0.0857 
     47 S47       -75.0373   26.0161  -71.6076 S.3       11 UNK        -0.2512 
     48 C48       -76.7104   26.3698  -70.9804 C.3       11 UNK         0.0225 
     49 N         -76.7132   24.4865  -74.0087 N.am      5 UNK        -0.4615 
     50 C         -76.9204   23.2668  -73.5030 C.2       4 UNK         0.5053 
     51 O         -76.0249   22.5225  -73.1048 O.2       4 UNK        -0.5105 
     52 CA        -78.3791   22.7849  -73.4705 C.3       4 UNK         0.0263 
     53 CB        -79.0953   23.2858  -72.2057 C.3       4 UNK        -0.1981 
     54 N         -79.1208   23.2327  -74.6498 N.am      4 UNK        -0.4224 
     55 C         -79.0832   22.6459  -75.8531 C.2       3 UNK         0.4895 
     56 O         -78.4392   21.6228  -76.0911 O.2       3 UNK        -0.5091 
     57 CA        -79.8919   23.3296  -76.9777 C.3       3 UNK         0.0250 
     58 CB        -80.2295   22.3733  -78.1414 C.3       3 UNK        -0.1996 
     59 N         -81.1000   24.0165  -76.4952 N.am      3 UNK        -0.4254 
     60 C         -82.1503   23.4788  -75.8526 C.2       2 UNK         0.5004 
     61 O         -82.2792   22.2727  -75.6370 O.2       2 UNK        -0.5226 
     62 CA        -83.2017   24.4732  -75.3141 C.3       2 UNK         0.0269 
     63 CB        -84.2738   23.7920  -74.4421 C.3       2 UNK        -0.1926 
     64 N         -82.5549   25.5309  -74.5291 N.am      2 UNK        -0.4687 
     65 C         -82.0452   26.6554  -75.0464 C.2       1 UNK         0.5165 
     66 O         -82.1882   26.9815  -76.2276 O.2       1 UNK        -0.5079 
     67 H67       -78.3216   28.9042  -76.5418 H         1 UNK         0.0900 
     68 H68       -77.6237   27.3275  -76.9046 H         1 UNK         0.0900 
     69 H69       -77.0608   28.2419  -75.5006 H         1 UNK         0.0900 
     70 H70       -80.1225   28.9727  -75.2051 H         1 UNK         0.2959 
     71 H71       -80.8114   26.8657  -73.3158 H         1 UNK         0.1079 
     72 H72       -82.0727   29.5333  -74.1305 H         1 UNK         0.0837 
     73 H73       -83.0133   28.3618  -73.2524 H         1 UNK         0.0837 
     74 H74       -79.6408   30.1401  -73.4075 H         1 UNK         0.0685 
     75 H75       -79.9971   31.2059  -72.0845 H         1 UNK         0.0685 
     76 H76       -78.7785   27.6195  -72.2412 H         1 UNK         0.1434 
     77 H77       -75.4296   28.4015  -69.6880 H         1 UNK         0.1329 
     78 H78       -78.0349   31.6043  -70.8447 H         1 UNK         0.1335 
     79 H79       -76.4555   31.8577  -68.9603 H         1 UNK         0.0680 
     80 H80       -75.3204   30.6017  -68.5479 H         1 UNK         0.0680 
     81 H81       -73.5326   29.7473  -70.1032 H         1 UNK         0.1032 
     82 H82       -72.5321   31.0451  -69.5122 H         1 UNK         0.1032 
     83 H83       -72.0495   31.7246  -71.8875 H         1 UNK         0.0461 
     84 H84       -71.3484   28.5339  -72.9473 H         1 UNK         0.3453 
     85 H85       -69.8507   28.3827  -72.0647 H         1 UNK         0.3453 
     86 H86       -73.9095   29.5854  -72.5733 H         1 UNK         0.2984 
     87 H87       -74.3672   29.0116  -74.6224 H         1 UNK         0.0554 
     88 H88       -75.2827   30.1693  -76.6059 H         1 UNK         0.0847 
     89 H89       -74.0798   31.4512  -76.4522 H         1 UNK         0.0847 
     90 H90       -75.3131   31.2425  -75.2155 H         1 UNK         0.0847 
     91 H91       -72.8986   29.3111  -77.0411 H         1 UNK         0.3141 
     92 H92       -70.5424   28.2686  -77.2571 H         1 UNK         0.0743 
     93 H93       -70.8079   25.4723  -76.0312 H         1 UNK         0.0784 
     94 H94       -69.6070   25.9656  -77.2251 H         1 UNK         0.0784 
     95 H95       -69.5828   26.6642  -75.6148 H         1 UNK         0.0784 
     96 H96       -72.2032   25.9622  -77.9973 H         1 UNK         0.3213 
     97 H97       -73.9394   27.7180  -80.5697 H         1 UNK         0.0855 
     98 H98       -71.8166   26.8316  -81.4699 H         1 UNK         0.0814 
     99 H99       -73.1271   25.7005  -81.7635 H         1 UNK         0.0814 
    100 H100      -71.9537   25.3842  -80.4876 H         1 UNK         0.0814 
    101 H101      -75.4076   26.4759  -79.5266 H         1 UNK         0.3105 
    102 H102      -76.4732   25.1181  -78.3094 H         1 UNK         0.0547 
    103 H103      -76.0195   23.0909  -79.7064 H         1 UNK         0.0837 
    104 H104      -75.1765   22.3402  -78.3593 H         1 UNK         0.0837 
    105 H105      -76.9029   22.6773  -78.2475 H         1 UNK         0.0837 
    106 H106      -75.7836   23.4783  -76.1734 H         1 UNK         0.3020 
    107 H107      -74.6029   24.4134  -74.0260 H         1 UNK         0.1245 
    108 H108      -76.0201   27.0987  -73.5403 H         1 UNK         0.0781 
    109 H109      -74.2927   26.8906  -73.6751 H         1 UNK         0.0781 
    110 H110      -76.7856   25.9955  -69.9587 H         1 UNK         0.0836 
    111 H111      -77.4338   25.8026  -71.5653 H         1 UNK         0.0836 
    112 H112      -77.5149   25.0215  -74.3400 H         1 UNK         0.3022 
    113 H113      -78.3708   21.6929  -73.4484 H         1 UNK         0.0747 
    114 H114      -80.0877   22.8434  -72.1161 H         1 UNK         0.0793 
    115 H115      -78.5386   23.0169  -71.3068 H         1 UNK         0.0793 
    116 H116      -79.2142   24.3696  -72.2084 H         1 UNK         0.0793 
    117 H117      -79.5895   24.1270  -74.5799 H         1 UNK         0.3047 
    118 H118      -79.2401   24.1104  -77.3734 H         1 UNK         0.0822 
    119 H119      -80.7793   22.8868  -78.9300 H         1 UNK         0.0807 
    120 H120      -80.8318   21.5276  -77.8081 H         1 UNK         0.0807 
    121 H121      -79.3237   21.9671  -78.5928 H         1 UNK         0.0807 
    122 H122      -81.1046   25.0224  -76.6142 H         1 UNK         0.2946 
    123 H123      -83.7058   24.9080  -76.1807 H         1 UNK         0.1144 
    124 H124      -84.8072   23.0252  -75.0056 H         1 UNK         0.0793 
    125 H125      -85.0166   24.5102  -74.0945 H         1 UNK         0.0793 
    126 H126      -83.8374   23.3098  -73.5664 H         1 UNK         0.0793 
    127 H127      -82.3919   25.3219  -73.5540 H         1 UNK         0.2896 
@<TRIPOS>BOND
     1    1    2 1    
     2    1   67 1    
     3    1   68 1    
     4    1   69 1    
     5    2    3 2    
     6    2    4 am   BACKBONE|DICT|INTERRES
     7    4    5 1    
     8    4   70 1    
     9    5    6 1    
    10    5   65 1    
    11    5   71 1    
    12    6    7 1    
    13    6   72 1    
    14    6   73 1    
    15    7    8 1    
    16    8    9 1    
    17    8   74 1    
    18    8   75 1    
    19    9   10 ar   
    20    9   14 ar   
    21   10   11 ar   
    22   10   76 1    
    23   11   12 ar   
    24   11   48 1    
    25   12   13 ar   
    26   12   77 1    
    27   13   14 ar   
    28   13   15 1    
    29   14   78 1    
    30   15   16 1    
    31   15   79 1    
    32   15   80 1    
    33   16   17 1    
    34   17   18 1    
    35   17   81 1    
    36   17   82 1    
    37   18   19 1    
    38   18   22 1    
    39   18   83 1    
    40   19   20 am   BACKBONE|DICT|INTERRES
    41   19   21 2    
    42   20   84 1    
    43   20   85 1    
    44   22   23 am   BACKBONE|DICT|INTERRES
    45   22   86 1    
    46   23   24 2    
    47   23   25 1    
    48   25   26 1    
    49   25   27 1    
    50   25   87 1    
    51   26   88 1    
    52   26   89 1    
    53   26   90 1    
    54   27   28 am   BACKBONE|DICT|INTERRES
    55   27   91 1    
    56   28   29 2    
    57   28   30 1    
    58   30   31 1    
    59   30   32 1    
    60   30   92 1    
    61   31   93 1    
    62   31   94 1    
    63   31   95 1    
    64   32   33 am   BACKBONE|DICT|INTERRES
    65   32   96 1    
    66   33   34 2    
    67   33   35 1    
    68   35   36 1    
    69   35   37 1    
    70   35   97 1    
    71   36   98 1    
    72   36   99 1    
    73   36  100 1    
    74   37   38 am   BACKBONE|DICT|INTERRES
    75   37  101 1    
    76   38   39 2    
    77   38   40 1    
    78   40   41 1    
    79   40   42 1    
    80   40  102 1    
    81   41  103 1    
    82   41  104 1    
    83   41  105 1    
    84   42   43 am   BACKBONE|DICT|INTERRES
    85   42  106 1    
    86   43   44 2    
    87   43   45 1    
    88   45   46 1    
    89   45   49 1    
    90   45  107 1    
    91   46   47 1    
    92   46  108 1    
    93   46  109 1    
    94   47   48 1    
    95   48  110 1    
    96   48  111 1    
    97   49   50 am   BACKBONE|DICT|INTERRES
    98   49  112 1    
    99   50   51 2    
   100   50   52 1    
   101   52   53 1    
   102   52   54 1    
   103   52  113 1    
   104   53  114 1    
   105   53  115 1    
   106   53  116 1    
   107   54   55 am   BACKBONE|DICT|INTERRES
   108   54  117 1    
   109   55   56 2    
   110   55   57 1    
   111   57   58 1    
   112   57   59 1    
   113   57  118 1    
   114   58  119 1    
   115   58  120 1    
   116   58  121 1    
   117   59   60 am   BACKBONE|DICT|INTERRES
   118   59  122 1    
   119   60   61 2    
   120   60   62 1    
   121   62   63 1    
   122   62   64 1    
   123   62  123 1    
   124   63  124 1    
   125   63  125 1    
   126   63  126 1    
   127   64   65 am   BACKBONE|DICT|INTERRES
   128   64  127 1    
   129   65   66 2    
@<TRIPOS>SUBSTRUCTURE
     1 UNK         1 GROUP             0       ****    0 ROOT    
