@<TRIPOS>MOLECULE
3R135
127   129    1
SMALL
USER_CHARGES


@<TRIPOS>ATOM
      1 CA        -76.8217   25.8106  -70.3978 C.3       0 UNK        -0.1998 
      2 C         -78.1845   25.7378  -71.0692 C.2       0 UNK         0.4909 
      3 O         -78.2519   25.6171  -72.2903 O.2       0 UNK        -0.5240 
      4 N         -79.2672   25.7849  -70.2787 N.am      1 UNK        -0.4739 
      5 CA        -80.6757   25.8056  -70.7181 C.3       1 UNK         0.0864 
      6 C6        -81.0750   27.1327  -71.4193 C.3       11 UNK        -0.0881 
      7 S7        -80.8431   28.5710  -70.3221 S.3       11 UNK        -0.2682 
      8 C8        -81.0279   29.9521  -71.4988 C.3       11 UNK         0.0289 
      9 C9        -79.9280   30.0246  -72.5557 C.ar      11 UNK        -0.0687 
     10 C10       -80.2587   30.3494  -73.8749 C.ar      11 UNK        -0.0823 
     11 C11       -79.2663   30.4677  -74.8532 C.ar      11 UNK        -0.0830 
     12 C12       -77.9278   30.2599  -74.5035 C.ar      11 UNK        -0.1021 
     13 C13       -77.5865   29.8995  -73.1965 C.ar      11 UNK        -0.0753 
     14 C14       -78.5869   29.8001  -72.2260 C.ar      11 UNK        -0.0933 
     15 C15       -76.1461   29.5872  -72.8264 C.3       11 UNK         0.0166 
     16 S16       -75.3368   31.0180  -72.0476 S.3       11 UNK        -0.2615 
     17 C17       -73.9168   30.2221  -71.2172 C.3       11 UNK        -0.0865 
     18 CA        -72.5840   30.3766  -71.9947 C.3       10 UNK         0.0862 
     19 C         -71.3882   29.8399  -71.1511 C.2       10 UNK         0.5551 
     20 N         -70.6876   28.7894  -71.5652 N.am      10 UNK        -0.7319 
     21 O         -71.0897   30.3945  -70.0964 O.2       10 UNK        -0.5018 
     22 N         -72.6790   29.8011  -73.3436 N.am      10 UNK        -0.4509 
     23 C         -71.8470   30.0684  -74.3568 C.2       10 UNK         0.4899 
     24 O         -70.9614   30.9233  -74.3062 O.2       10 UNK        -0.4839 
     25 CA        -72.0388   29.2315  -75.6387 C.3       9 UNK         0.0222 
     26 CB        -70.7362   29.1078  -76.4567 C.3       9 UNK        -0.1966 
     27 N         -72.6315   27.9054  -75.4007 N.am      9 UNK        -0.4218 
     28 C         -72.1443   26.9177  -74.6305 C.2       9 UNK         0.5020 
     29 O         -71.1090   27.0083  -73.9695 O.2       9 UNK        -0.5274 
     30 CA        -72.9690   25.6235  -74.5547 C.3       8 UNK         0.0270 
     31 CB        -74.0711   25.7604  -73.4891 C.3       8 UNK        -0.1976 
     32 N         -73.5645   25.2940  -75.8535 N.am      8 UNK        -0.4313 
     33 C         -73.0560   24.4092  -76.7249 C.2       8 UNK         0.5041 
     34 O         -72.1104   23.6623  -76.4700 O.2       8 UNK        -0.5577 
     35 CA        -73.6867   24.3573  -78.1335 C.3       7 UNK         0.0284 
     36 CB        -74.8215   23.3238  -78.1879 C.3       7 UNK        -0.1958 
     37 N         -74.1929   25.6546  -78.5893 N.am      7 UNK        -0.4454 
     38 C         -73.4308   26.7388  -78.7931 C.2       7 UNK         0.5089 
     39 O         -72.2009   26.7148  -78.7950 O.2       7 UNK        -0.5125 
     40 CA        -74.1522   28.0876  -78.9825 C.3       6 UNK         0.0408 
     41 CB        -74.0964   28.5225  -80.4551 C.3       6 UNK        -0.1791 
     42 N         -75.5492   28.1030  -78.5322 N.am      6 UNK        -0.4762 
     43 C         -75.9968   27.8501  -77.2925 C.2       6 UNK         0.5007 
     44 O         -75.2575   27.5789  -76.3451 O.2       6 UNK        -0.5032 
     45 CA        -77.5239   27.8663  -77.0825 C.3       5 UNK         0.0783 
     46 C46       -78.2166   28.9929  -77.8942 C.3       11 UNK        -0.0857 
     47 S47       -79.9077   29.3385  -77.3067 S.3       11 UNK        -0.2512 
     48 C48       -79.6519   30.8262  -76.2819 C.3       11 UNK         0.0225 
     49 N         -78.1405   26.5467  -77.2765 N.am      5 UNK        -0.4615 
     50 C         -78.0245   25.7022  -78.3102 C.2       4 UNK         0.5053 
     51 O         -77.2845   25.8897  -79.2768 O.2       4 UNK        -0.5105 
     52 CA        -78.8558   24.4055  -78.2237 C.3       4 UNK         0.0263 
     53 CB        -78.7541   23.5512  -79.5016 C.3       4 UNK        -0.1981 
     54 N         -78.4619   23.5859  -77.0747 N.am      4 UNK        -0.4224 
     55 C         -78.8049   23.8256  -75.8034 C.2       3 UNK         0.4895 
     56 O         -79.5393   24.7557  -75.4607 O.2       3 UNK        -0.5091 
     57 CA        -78.1634   22.9124  -74.7505 C.3       3 UNK         0.0250 
     58 CB        -76.7458   23.4043  -74.4156 C.3       3 UNK        -0.1996 
     59 N         -78.9578   22.9020  -73.5233 N.am      3 UNK        -0.4254 
     60 C         -79.9329   22.0207  -73.2620 C.2       2 UNK         0.5004 
     61 O         -80.2505   21.1119  -74.0313 O.2       2 UNK        -0.5226 
     62 CA        -80.6662   22.1336  -71.9118 C.3       2 UNK         0.0269 
     63 CB        -80.2354   20.9949  -70.9717 C.3       2 UNK        -0.1926 
     64 N         -80.4498   23.4117  -71.2303 N.am      2 UNK        -0.4687 
     65 C         -81.0815   24.5541  -71.5340 C.2       1 UNK         0.5165 
     66 O         -81.9556   24.6300  -72.3995 O.2       1 UNK        -0.5079 
     67 H67       -76.2415   24.9182  -70.6311 H         1 UNK         0.0900 
     68 H68       -76.2716   26.6775  -70.7613 H         1 UNK         0.0900 
     69 H69       -76.9038   25.8902  -69.3140 H         1 UNK         0.0900 
     70 H70       -79.1360   25.8717  -69.2802 H         1 UNK         0.2959 
     71 H71       -81.2703   25.7364  -69.8056 H         1 UNK         0.1079 
     72 H72       -82.1245   27.1190  -71.7192 H         1 UNK         0.0837 
     73 H73       -80.4943   27.2688  -72.3337 H         1 UNK         0.0837 
     74 H74       -81.0274   30.8875  -70.9380 H         1 UNK         0.0685 
     75 H75       -82.0095   29.8744  -71.9689 H         1 UNK         0.0685 
     76 H76       -81.2931   30.5192  -74.1418 H         1 UNK         0.1434 
     77 H77       -77.1537   30.3564  -75.2521 H         1 UNK         0.1329 
     78 H78       -78.3173   29.5418  -71.2112 H         1 UNK         0.1335 
     79 H79       -75.5826   29.2850  -73.7104 H         1 UNK         0.0680 
     80 H80       -76.1333   28.7347  -72.1462 H         1 UNK         0.0680 
     81 H81       -74.1321   29.1689  -71.0288 H         1 UNK         0.1032 
     82 H82       -73.8297   30.6833  -70.2312 H         1 UNK         0.1032 
     83 H83       -72.4028   31.4466  -72.1156 H         1 UNK         0.0461 
     84 H84       -69.9172   28.4634  -71.0039 H         1 UNK         0.3453 
     85 H85       -70.9087   28.3162  -72.4345 H         1 UNK         0.3453 
     86 H86       -73.3713   29.0812  -73.4734 H         1 UNK         0.2984 
     87 H87       -72.7603   29.7788  -76.2465 H         1 UNK         0.0554 
     88 H88       -70.8924   28.5381  -77.3717 H         1 UNK         0.0847 
     89 H89       -69.9471   28.6157  -75.8872 H         1 UNK         0.0847 
     90 H90       -70.3611   30.0885  -76.7514 H         1 UNK         0.0847 
     91 H91       -73.5433   27.7596  -75.8296 H         1 UNK         0.3141 
     92 H92       -72.2945   24.8259  -74.2360 H         1 UNK         0.0743 
     93 H93       -73.6627   26.1225  -72.5443 H         1 UNK         0.0784 
     94 H94       -74.5327   24.7962  -73.2822 H         1 UNK         0.0784 
     95 H95       -74.8568   26.4529  -73.7938 H         1 UNK         0.0784 
     96 H96       -74.3276   25.8900  -76.1583 H         1 UNK         0.3213 
     97 H97       -72.9048   24.0425  -78.8281 H         1 UNK         0.0855 
     98 H98       -75.6639   23.6246  -77.5677 H         1 UNK         0.0814 
     99 H99       -74.4823   22.3487  -77.8350 H         1 UNK         0.0814 
    100 H100      -75.1858   23.1911  -79.2067 H         1 UNK         0.0814 
    101 H101      -75.1972   25.7584  -78.6834 H         1 UNK         0.3105 
    102 H102      -73.6105   28.8261  -78.3891 H         1 UNK         0.0547 
    103 H103      -73.0670   28.5534  -80.8153 H         1 UNK         0.0837 
    104 H104      -74.6462   27.8351  -81.0993 H         1 UNK         0.0837 
    105 H105      -74.5139   29.5201  -80.5919 H         1 UNK         0.0837 
    106 H106      -76.2418   28.2312  -79.2570 H         1 UNK         0.3020 
    107 H107      -77.6612   28.0804  -76.0230 H         1 UNK         0.1245 
    108 H108      -77.6385   29.9181  -77.8556 H         1 UNK         0.0781 
    109 H109      -78.2796   28.7232  -78.9498 H         1 UNK         0.0781 
    110 H110      -80.5779   31.4034  -76.2784 H         1 UNK         0.0836 
    111 H111      -78.9015   31.4795  -76.7291 H         1 UNK         0.0836 
    112 H112      -78.7391   26.2378  -76.5154 H         1 UNK         0.3022 
    113 H113      -79.9011   24.6998  -78.1058 H         1 UNK         0.0747 
    114 H114      -79.3971   22.6728  -79.4440 H         1 UNK         0.0793 
    115 H115      -77.7343   23.2097  -79.6826 H         1 UNK         0.0793 
    116 H116      -79.0665   24.1214  -80.3776 H         1 UNK         0.0793 
    117 H117      -77.8461   22.8104  -77.2713 H         1 UNK         0.3047 
    118 H118      -78.0935   21.8988  -75.1517 H         1 UNK         0.0822 
    119 H119      -76.3089   22.8342  -73.5956 H         1 UNK         0.0807 
    120 H120      -76.7463   24.4567  -74.1300 H         1 UNK         0.0807 
    121 H121      -76.0769   23.3009  -75.2692 H         1 UNK         0.0807 
    122 H122      -78.8250   23.6945  -72.9037 H         1 UNK         0.2946 
    123 H123      -81.7335   22.0210  -72.1172 H         1 UNK         0.1144 
    124 H124      -80.4145   20.0208  -71.4292 H         1 UNK         0.0793 
    125 H125      -80.7955   21.0181  -70.0367 H         1 UNK         0.0793 
    126 H126      -79.1732   21.0504  -70.7300 H         1 UNK         0.0793 
    127 H127      -79.7419   23.4347  -70.5101 H         1 UNK         0.2896 
@<TRIPOS>BOND
     1    1    2 1    
     2    1   67 1    
     3    1   68 1    
     4    1   69 1    
     5    2    3 2    
     6    2    4 am   BACKBONE|DICT|INTERRES
     7    4    5 1    
     8    4   70 1    
     9    5    6 1    
    10    5   65 1    
    11    5   71 1    
    12    6    7 1    
    13    6   72 1    
    14    6   73 1    
    15    7    8 1    
    16    8    9 1    
    17    8   74 1    
    18    8   75 1    
    19    9   10 ar   
    20    9   14 ar   
    21   10   11 ar   
    22   10   76 1    
    23   11   12 ar   
    24   11   48 1    
    25   12   13 ar   
    26   12   77 1    
    27   13   14 ar   
    28   13   15 1    
    29   14   78 1    
    30   15   16 1    
    31   15   79 1    
    32   15   80 1    
    33   16   17 1    
    34   17   18 1    
    35   17   81 1    
    36   17   82 1    
    37   18   19 1    
    38   18   22 1    
    39   18   83 1    
    40   19   20 am   BACKBONE|DICT|INTERRES
    41   19   21 2    
    42   20   84 1    
    43   20   85 1    
    44   22   23 am   BACKBONE|DICT|INTERRES
    45   22   86 1    
    46   23   24 2    
    47   23   25 1    
    48   25   26 1    
    49   25   27 1    
    50   25   87 1    
    51   26   88 1    
    52   26   89 1    
    53   26   90 1    
    54   27   28 am   BACKBONE|DICT|INTERRES
    55   27   91 1    
    56   28   29 2    
    57   28   30 1    
    58   30   31 1    
    59   30   32 1    
    60   30   92 1    
    61   31   93 1    
    62   31   94 1    
    63   31   95 1    
    64   32   33 am   BACKBONE|DICT|INTERRES
    65   32   96 1    
    66   33   34 2    
    67   33   35 1    
    68   35   36 1    
    69   35   37 1    
    70   35   97 1    
    71   36   98 1    
    72   36   99 1    
    73   36  100 1    
    74   37   38 am   BACKBONE|DICT|INTERRES
    75   37  101 1    
    76   38   39 2    
    77   38   40 1    
    78   40   41 1    
    79   40   42 1    
    80   40  102 1    
    81   41  103 1    
    82   41  104 1    
    83   41  105 1    
    84   42   43 am   BACKBONE|DICT|INTERRES
    85   42  106 1    
    86   43   44 2    
    87   43   45 1    
    88   45   46 1    
    89   45   49 1    
    90   45  107 1    
    91   46   47 1    
    92   46  108 1    
    93   46  109 1    
    94   47   48 1    
    95   48  110 1    
    96   48  111 1    
    97   49   50 am   BACKBONE|DICT|INTERRES
    98   49  112 1    
    99   50   51 2    
   100   50   52 1    
   101   52   53 1    
   102   52   54 1    
   103   52  113 1    
   104   53  114 1    
   105   53  115 1    
   106   53  116 1    
   107   54   55 am   BACKBONE|DICT|INTERRES
   108   54  117 1    
   109   55   56 2    
   110   55   57 1    
   111   57   58 1    
   112   57   59 1    
   113   57  118 1    
   114   58  119 1    
   115   58  120 1    
   116   58  121 1    
   117   59   60 am   BACKBONE|DICT|INTERRES
   118   59  122 1    
   119   60   61 2    
   120   60   62 1    
   121   62   63 1    
   122   62   64 1    
   123   62  123 1    
   124   63  124 1    
   125   63  125 1    
   126   63  126 1    
   127   64   65 am   BACKBONE|DICT|INTERRES
   128   64  127 1    
   129   65   66 2    
@<TRIPOS>SUBSTRUCTURE
     1 UNK         1 GROUP             0       ****    0 ROOT    
