@<TRIPOS>MOLECULE
3R135
127   129    1
SMALL
USER_CHARGES


@<TRIPOS>ATOM
      1 CA        -83.7729   28.6097  -71.8511 C.3       0 UNK        -0.1998 
      2 C         -82.5446   28.2104  -72.6540 C.2       0 UNK         0.4909 
      3 O         -81.7817   27.3516  -72.2105 O.2       0 UNK        -0.5240 
      4 N         -82.3511   28.8305  -73.8275 N.am      1 UNK        -0.4739 
      5 CA        -81.2591   28.6342  -74.7983 C.3       1 UNK         0.0864 
      6 C6        -79.8368   28.9019  -74.2331 C.3       11 UNK        -0.0881 
      7 S7        -79.6042   30.6270  -73.6732 S.3       11 UNK        -0.2682 
      8 C8        -79.7248   30.5054  -71.8565 C.3       11 UNK         0.0289 
      9 C9        -78.4599   29.9448  -71.2219 C.ar      11 UNK        -0.0687 
     10 C10       -78.3289   28.5700  -71.0118 C.ar      11 UNK        -0.0823 
     11 C11       -77.1596   28.0391  -70.4565 C.ar      11 UNK        -0.0830 
     12 C12       -76.1558   28.9145  -70.0281 C.ar      11 UNK        -0.1021 
     13 C13       -76.2787   30.2977  -70.2084 C.ar      11 UNK        -0.0753 
     14 C14       -77.4310   30.8022  -70.8203 C.ar      11 UNK        -0.0933 
     15 C15       -75.2114   31.2654  -69.6981 C.3       11 UNK         0.0166 
     16 S16       -73.4888   30.7157  -69.9579 S.3       11 UNK        -0.2615 
     17 C17       -73.2381   31.0240  -71.7388 C.3       11 UNK        -0.0865 
     18 CA        -72.8621   29.7285  -72.5132 C.3       10 UNK         0.0862 
     19 C         -74.0929   28.8540  -72.8654 C.2       10 UNK         0.5551 
     20 N         -74.9853   29.3308  -73.7241 N.am      10 UNK        -0.7319 
     21 O         -74.2173   27.7382  -72.3691 O.2       10 UNK        -0.5018 
     22 N         -71.9977   29.9596  -73.6795 N.am      10 UNK        -0.4509 
     23 C         -72.2440   30.7551  -74.7298 C.2       10 UNK         0.4899 
     24 O         -73.1882   31.5425  -74.7989 O.2       10 UNK        -0.4839 
     25 CA        -71.2855   30.6098  -75.9271 C.3       9 UNK         0.0222 
     26 CB        -70.0288   31.4720  -75.7258 C.3       9 UNK        -0.1966 
     27 N         -70.8991   29.2124  -76.1658 N.am      9 UNK        -0.4218 
     28 C         -71.7538   28.2544  -76.5549 C.2       9 UNK         0.5020 
     29 O         -72.9245   28.4798  -76.8706 O.2       9 UNK        -0.5274 
     30 CA        -71.2088   26.8158  -76.5724 C.3       8 UNK         0.0270 
     31 CB        -70.7948   26.3668  -75.1582 C.3       8 UNK        -0.1976 
     32 N         -72.2509   25.9093  -77.0491 N.am      8 UNK        -0.4313 
     33 C         -72.1851   25.1244  -78.1317 C.2       8 UNK         0.5041 
     34 O         -71.1734   24.9985  -78.8240 O.2       8 UNK        -0.5577 
     35 CA        -73.4570   24.3393  -78.5202 C.3       7 UNK         0.0284 
     36 CB        -73.3475   22.8782  -78.0544 C.3       7 UNK        -0.1958 
     37 N         -74.6889   24.9179  -77.9783 N.am      7 UNK        -0.4454 
     38 C         -75.1888   26.1152  -78.3112 C.2       7 UNK         0.5089 
     39 O         -74.7760   26.7804  -79.2621 O.2       7 UNK        -0.5125 
     40 CA        -76.3177   26.6874  -77.4306 C.3       6 UNK         0.0408 
     41 CB        -77.6418   26.7407  -78.2090 C.3       6 UNK        -0.1791 
     42 N         -76.5444   25.9951  -76.1552 N.am      6 UNK        -0.4762 
     43 C         -75.6720   25.8745  -75.1418 C.2       6 UNK         0.5007 
     44 O         -74.4939   26.2190  -75.2100 O.2       6 UNK        -0.5032 
     45 CA        -76.2058   25.2175  -73.8570 C.3       5 UNK         0.0783 
     46 C46       -77.1977   26.1601  -73.1323 C.3       11 UNK        -0.0857 
     47 S47       -77.8105   25.4911  -71.5474 S.3       11 UNK        -0.2512 
     48 C48       -76.9429   26.5305  -70.3126 C.3       11 UNK         0.0225 
     49 N         -76.8136   23.9321  -74.1971 N.am      5 UNK        -0.4615 
     50 C         -76.1453   22.7790  -74.3144 C.2       4 UNK         0.5053 
     51 O         -74.9459   22.6534  -74.0684 O.2       4 UNK        -0.5105 
     52 CA        -76.9462   21.5552  -74.7968 C.3       4 UNK         0.0263 
     53 CB        -77.4926   20.7660  -73.5963 C.3       4 UNK        -0.1981 
     54 N         -78.0544   21.9018  -75.6917 N.am      4 UNK        -0.4224 
     55 C         -77.9080   22.4180  -76.9205 C.2       3 UNK         0.4895 
     56 O         -76.8177   22.6095  -77.4581 O.2       3 UNK        -0.5091 
     57 CA        -79.1942   22.8228  -77.6640 C.3       3 UNK         0.0250 
     58 CB        -79.7265   21.6417  -78.4911 C.3       3 UNK        -0.1996 
     59 N         -80.2697   23.3418  -76.8063 N.am      3 UNK        -0.4254 
     60 C         -80.1612   24.3775  -75.9614 C.2       2 UNK         0.5004 
     61 O         -79.1026   24.9644  -75.7310 O.2       2 UNK        -0.5226 
     62 CA        -81.4369   24.7865  -75.2071 C.3       2 UNK         0.0269 
     63 CB        -81.6423   23.8752  -73.9859 C.3       2 UNK        -0.1926 
     64 N         -81.3957   26.1760  -74.7444 N.am      2 UNK        -0.4687 
     65 C         -81.3344   27.2684  -75.5166 C.2       1 UNK         0.5165 
     66 O         -81.3660   27.2351  -76.7479 O.2       1 UNK        -0.5079 
     67 H67       -84.4172   27.7444  -71.6975 H         1 UNK         0.0900 
     68 H68       -84.3555   29.3827  -72.3518 H         1 UNK         0.0900 
     69 H69       -83.4736   28.9895  -70.8747 H         1 UNK         0.0900 
     70 H70       -83.0385   29.5114  -74.1199 H         1 UNK         0.2959 
     71 H71       -81.4343   29.3802  -75.5758 H         1 UNK         0.1079 
     72 H72       -79.0864   28.7170  -75.0046 H         1 UNK         0.0837 
     73 H73       -79.6040   28.2068  -73.4303 H         1 UNK         0.0837 
     74 H74       -79.9198   31.5022  -71.4584 H         1 UNK         0.0685 
     75 H75       -80.5865   29.9021  -71.5753 H         1 UNK         0.0685 
     76 H76       -79.1347   27.9102  -71.3005 H         1 UNK         0.1434 
     77 H77       -75.2635   28.5134  -69.5676 H         1 UNK         0.1329 
     78 H78       -77.5398   31.8682  -70.9667 H         1 UNK         0.1335 
     79 H79       -75.3663   31.3992  -68.6268 H         1 UNK         0.0680 
     80 H80       -75.3355   32.2519  -70.1479 H         1 UNK         0.0680 
     81 H81       -72.4288   31.7511  -71.8193 H         1 UNK         0.1032 
     82 H82       -74.1131   31.5113  -72.1729 H         1 UNK         0.1032 
     83 H83       -72.2359   29.1263  -71.8527 H         1 UNK         0.0461 
     84 H84       -75.7846   28.7764  -73.9739 H         1 UNK         0.3453 
     85 H85       -74.8188   30.2232  -74.1680 H         1 UNK         0.3453 
     86 H86       -71.2025   29.3420  -73.7432 H         1 UNK         0.2984 
     87 H87       -71.8064   30.9721  -76.8160 H         1 UNK         0.0554 
     88 H88       -69.3789   31.4375  -76.6004 H         1 UNK         0.0847 
     89 H89       -69.4470   31.1500  -74.8612 H         1 UNK         0.0847 
     90 H90       -70.2967   32.5175  -75.5657 H         1 UNK         0.0847 
     91 H91       -69.9440   28.9589  -75.9556 H         1 UNK         0.3141 
     92 H92       -70.3396   26.7895  -77.2325 H         1 UNK         0.0743 
     93 H93       -69.9681   26.9636  -74.7721 H         1 UNK         0.0784 
     94 H94       -71.6226   26.4528  -74.4519 H         1 UNK         0.0784 
     95 H95       -70.4650   25.3276  -75.1565 H         1 UNK         0.0784 
     96 H96       -73.1425   26.0083  -76.5659 H         1 UNK         0.3213 
     97 H97       -73.5297   24.3513  -79.6097 H         1 UNK         0.0855 
     98 H98       -72.4448   22.4084  -78.4474 H         1 UNK         0.0814 
     99 H99       -74.1957   22.2872  -78.4005 H         1 UNK         0.0814 
    100 H100      -73.3088   22.8038  -76.9666 H         1 UNK         0.0814 
    101 H101      -75.1419   24.4117  -77.2293 H         1 UNK         0.3105 
    102 H102      -76.0298   27.7116  -77.1851 H         1 UNK         0.0547 
    103 H103      -77.5344   27.3198  -79.1270 H         1 UNK         0.0837 
    104 H104      -77.9795   25.7441  -78.4904 H         1 UNK         0.0837 
    105 H105      -78.4327   27.2084  -77.6219 H         1 UNK         0.0837 
    106 H106      -77.4879   25.6329  -76.0120 H         1 UNK         0.3020 
    107 H107      -75.3524   25.0539  -73.1939 H         1 UNK         0.1245 
    108 H108      -76.7348   27.1304  -72.9576 H         1 UNK         0.0781 
    109 H109      -78.0686   26.3587  -73.7578 H         1 UNK         0.0781 
    110 H110      -75.8770   26.3059  -70.3796 H         1 UNK         0.0836 
    111 H111      -77.2618   26.2265  -69.3150 H         1 UNK         0.0836 
    112 H112      -77.7855   23.9697  -74.4791 H         1 UNK         0.3022 
    113 H113      -76.2589   20.9099  -75.3484 H         1 UNK         0.0747 
    114 H114      -77.9963   19.8535  -73.9159 H         1 UNK         0.0793 
    115 H115      -76.6852   20.4700  -72.9248 H         1 UNK         0.0793 
    116 H116      -78.2009   21.3562  -73.0130 H         1 UNK         0.0793 
    117 H117      -78.9898   21.7769  -75.3336 H         1 UNK         0.3047 
    118 H118      -78.9240   23.6208  -78.3569 H         1 UNK         0.0822 
    119 H119      -80.5652   21.9419  -79.1196 H         1 UNK         0.0807 
    120 H120      -80.0587   20.8196  -77.8559 H         1 UNK         0.0807 
    121 H121      -78.9536   21.2494  -79.1540 H         1 UNK         0.0807 
    122 H122      -81.1729   22.9023  -76.9139 H         1 UNK         0.2946 
    123 H123      -82.2878   24.6838  -75.8840 H         1 UNK         0.1144 
    124 H124      -82.5590   24.1286  -73.4526 H         1 UNK         0.0793 
    125 H125      -80.8134   23.9571  -73.2807 H         1 UNK         0.0793 
    126 H126      -81.7204   22.8277  -74.2798 H         1 UNK         0.0793 
    127 H127      -81.3884   26.3288  -73.7389 H         1 UNK         0.2896 
@<TRIPOS>BOND
     1    1    2 1    
     2    1   67 1    
     3    1   68 1    
     4    1   69 1    
     5    2    3 2    
     6    2    4 am   BACKBONE|DICT|INTERRES
     7    4    5 1    
     8    4   70 1    
     9    5    6 1    
    10    5   65 1    
    11    5   71 1    
    12    6    7 1    
    13    6   72 1    
    14    6   73 1    
    15    7    8 1    
    16    8    9 1    
    17    8   74 1    
    18    8   75 1    
    19    9   10 ar   
    20    9   14 ar   
    21   10   11 ar   
    22   10   76 1    
    23   11   12 ar   
    24   11   48 1    
    25   12   13 ar   
    26   12   77 1    
    27   13   14 ar   
    28   13   15 1    
    29   14   78 1    
    30   15   16 1    
    31   15   79 1    
    32   15   80 1    
    33   16   17 1    
    34   17   18 1    
    35   17   81 1    
    36   17   82 1    
    37   18   19 1    
    38   18   22 1    
    39   18   83 1    
    40   19   20 am   BACKBONE|DICT|INTERRES
    41   19   21 2    
    42   20   84 1    
    43   20   85 1    
    44   22   23 am   BACKBONE|DICT|INTERRES
    45   22   86 1    
    46   23   24 2    
    47   23   25 1    
    48   25   26 1    
    49   25   27 1    
    50   25   87 1    
    51   26   88 1    
    52   26   89 1    
    53   26   90 1    
    54   27   28 am   BACKBONE|DICT|INTERRES
    55   27   91 1    
    56   28   29 2    
    57   28   30 1    
    58   30   31 1    
    59   30   32 1    
    60   30   92 1    
    61   31   93 1    
    62   31   94 1    
    63   31   95 1    
    64   32   33 am   BACKBONE|DICT|INTERRES
    65   32   96 1    
    66   33   34 2    
    67   33   35 1    
    68   35   36 1    
    69   35   37 1    
    70   35   97 1    
    71   36   98 1    
    72   36   99 1    
    73   36  100 1    
    74   37   38 am   BACKBONE|DICT|INTERRES
    75   37  101 1    
    76   38   39 2    
    77   38   40 1    
    78   40   41 1    
    79   40   42 1    
    80   40  102 1    
    81   41  103 1    
    82   41  104 1    
    83   41  105 1    
    84   42   43 am   BACKBONE|DICT|INTERRES
    85   42  106 1    
    86   43   44 2    
    87   43   45 1    
    88   45   46 1    
    89   45   49 1    
    90   45  107 1    
    91   46   47 1    
    92   46  108 1    
    93   46  109 1    
    94   47   48 1    
    95   48  110 1    
    96   48  111 1    
    97   49   50 am   BACKBONE|DICT|INTERRES
    98   49  112 1    
    99   50   51 2    
   100   50   52 1    
   101   52   53 1    
   102   52   54 1    
   103   52  113 1    
   104   53  114 1    
   105   53  115 1    
   106   53  116 1    
   107   54   55 am   BACKBONE|DICT|INTERRES
   108   54  117 1    
   109   55   56 2    
   110   55   57 1    
   111   57   58 1    
   112   57   59 1    
   113   57  118 1    
   114   58  119 1    
   115   58  120 1    
   116   58  121 1    
   117   59   60 am   BACKBONE|DICT|INTERRES
   118   59  122 1    
   119   60   61 2    
   120   60   62 1    
   121   62   63 1    
   122   62   64 1    
   123   62  123 1    
   124   63  124 1    
   125   63  125 1    
   126   63  126 1    
   127   64   65 am   BACKBONE|DICT|INTERRES
   128   64  127 1    
   129   65   66 2    
@<TRIPOS>SUBSTRUCTURE
     1 UNK         1 GROUP             0       ****    0 ROOT    
