@<TRIPOS>MOLECULE
3R135
127   129    1
SMALL
USER_CHARGES


@<TRIPOS>ATOM
      1 CA        -84.1732   28.9890  -77.2075 C.3       0 UNK        -0.1998 
      2 C         -82.7140   28.6770  -76.9119 C.2       0 UNK         0.4909 
      3 O         -81.8306   29.1404  -77.6334 O.2       0 UNK        -0.5240 
      4 N         -82.4539   27.8935  -75.8562 N.am      1 UNK        -0.4739 
      5 CA        -81.1080   27.4762  -75.4381 C.3       1 UNK         0.0864 
      6 C6        -81.1006   27.0510  -73.9465 C.3       11 UNK        -0.0881 
      7 S7        -79.4451   27.1764  -73.1904 S.3       11 UNK        -0.2682 
      8 C8        -79.7198   28.3447  -71.8281 C.3       11 UNK         0.0289 
      9 C9        -78.4222   28.5902  -71.0745 C.ar      11 UNK        -0.0687 
     10 C10       -77.8652   27.5704  -70.2975 C.ar      11 UNK        -0.0823 
     11 C11       -76.6544   27.7696  -69.6307 C.ar      11 UNK        -0.0830 
     12 C12       -76.0237   29.0148  -69.7082 C.ar      11 UNK        -0.1021 
     13 C13       -76.5624   30.0421  -70.4905 C.ar      11 UNK        -0.0753 
     14 C14       -77.7656   29.8216  -71.1693 C.ar      11 UNK        -0.0933 
     15 C15       -75.8628   31.3955  -70.6058 C.3       11 UNK         0.0166 
     16 S16       -74.0497   31.2838  -70.8038 S.3       11 UNK        -0.2615 
     17 C17       -73.9164   30.3268  -72.3499 C.3       11 UNK        -0.0865 
     18 CA        -72.4573   30.1528  -72.8482 C.3       10 UNK         0.0862 
     19 C         -71.6560   29.1293  -71.9941 C.2       10 UNK         0.5551 
     20 N         -71.5907   27.8640  -72.3895 N.am      10 UNK        -0.7319 
     21 O         -71.0652   29.4914  -70.9800 O.2       10 UNK        -0.5018 
     22 N         -72.4370   29.8337  -74.2839 N.am      10 UNK        -0.4509 
     23 C         -71.4783   30.2181  -75.1350 C.2       10 UNK         0.4899 
     24 O         -70.5076   30.9043  -74.8100 O.2       10 UNK        -0.4839 
     25 CA        -71.6621   29.7873  -76.6027 C.3       9 UNK         0.0222 
     26 CB        -70.4665   30.1625  -77.5056 C.3       9 UNK        -0.1966 
     27 N         -72.0164   28.3707  -76.7468 N.am      9 UNK        -0.4218 
     28 C         -71.2623   27.2996  -76.4465 C.2       9 UNK         0.5020 
     29 O         -70.1191   27.3756  -75.9943 O.2       9 UNK        -0.5274 
     30 CA        -71.8740   25.9029  -76.6915 C.3       8 UNK         0.0270 
     31 CB        -71.5901   24.9454  -75.5187 C.3       8 UNK        -0.1976 
     32 N         -73.3203   25.9641  -76.9111 N.am      8 UNK        -0.4313 
     33 C         -73.9327   26.0107  -78.1025 C.2       8 UNK         0.5041 
     34 O         -73.3448   25.9023  -79.1787 O.2       8 UNK        -0.5577 
     35 CA        -75.4532   26.2652  -78.0978 C.3       7 UNK         0.0284 
     36 CB        -76.2289   24.9622  -78.3527 C.3       7 UNK        -0.1958 
     37 N         -75.9226   26.8854  -76.8532 N.am      7 UNK        -0.4454 
     38 C         -75.6480   28.1484  -76.4932 C.2       7 UNK         0.5089 
     39 O         -75.0126   28.9314  -77.1990 O.2       7 UNK        -0.5125 
     40 CA        -76.0720   28.5958  -75.0833 C.3       6 UNK         0.0408 
     41 CB        -77.4553   29.2525  -75.1266 C.3       6 UNK        -0.1791 
     42 N         -76.0413   27.5100  -74.0935 N.am      6 UNK        -0.4762 
     43 C         -74.9147   26.8817  -73.7229 C.2       6 UNK         0.5007 
     44 O         -73.8055   27.2039  -74.1506 O.2       6 UNK        -0.5032 
     45 CA        -75.0132   25.6834  -72.7545 C.3       5 UNK         0.0783 
     46 C46       -74.5834   26.0853  -71.3077 C.3       11 UNK        -0.0857 
     47 S47       -75.4831   25.2478  -69.9449 S.3       11 UNK        -0.2512 
     48 C48       -75.9975   26.6298  -68.8631 C.3       11 UNK         0.0225 
     49 N         -76.2641   24.9134  -72.8320 N.am      5 UNK        -0.4615 
     50 C         -76.7458   24.3217  -73.9324 C.2       4 UNK         0.5053 
     51 O         -76.3294   24.5574  -75.0691 O.2       4 UNK        -0.5105 
     52 CA        -77.8182   23.2396  -73.7297 C.3       4 UNK         0.0263 
     53 CB        -79.0438   23.7153  -72.9278 C.3       4 UNK        -0.1981 
     54 N         -78.2418   22.7571  -75.0390 N.am      4 UNK        -0.4224 
     55 C         -78.7938   21.5713  -75.3139 C.2       3 UNK         0.4895 
     56 O         -78.9929   20.6972  -74.4678 O.2       3 UNK        -0.5091 
     57 CA        -79.1874   21.3304  -76.7885 C.3       3 UNK         0.0250 
     58 CB        -80.1952   20.1729  -76.9582 C.3       3 UNK        -0.1996 
     59 N         -79.6693   22.5433  -77.4704 N.am      3 UNK        -0.4254 
     60 C         -80.7119   23.3075  -77.1086 C.2       2 UNK         0.5004 
     61 O         -81.4603   23.0635  -76.1586 O.2       2 UNK        -0.5226 
     62 CA        -80.9759   24.5540  -77.9680 C.3       2 UNK         0.0269 
     63 CB        -82.0927   24.2834  -78.9892 C.3       2 UNK        -0.1926 
     64 N         -81.3593   25.6864  -77.1246 N.am      2 UNK        -0.4687 
     65 C         -80.5071   26.3819  -76.3572 C.2       1 UNK         0.5165 
     66 O         -79.2899   26.1901  -76.3673 O.2       1 UNK        -0.5079 
     67 H67       -84.3404   30.0653  -77.1752 H         1 UNK         0.0900 
     68 H68       -84.8450   28.5202  -76.4887 H         1 UNK         0.0900 
     69 H69       -84.4389   28.6326  -78.2024 H         1 UNK         0.0900 
     70 H70       -83.2196   27.5432  -75.2973 H         1 UNK         0.2959 
     71 H71       -80.4682   28.3545  -75.5389 H         1 UNK         0.1079 
     72 H72       -81.4766   26.0336  -73.8232 H         1 UNK         0.0837 
     73 H73       -81.7800   27.6859  -73.3755 H         1 UNK         0.0837 
     74 H74       -80.1219   29.2777  -72.2262 H         1 UNK         0.0685 
     75 H75       -80.4691   27.9414  -71.1455 H         1 UNK         0.0685 
     76 H76       -78.3570   26.6087  -70.2425 H         1 UNK         0.1434 
     77 H77       -75.0907   29.1749  -69.1853 H         1 UNK         0.1329 
     78 H78       -78.1916   30.6092  -71.7756 H         1 UNK         0.1335 
     79 H79       -76.0801   31.9753  -69.7080 H         1 UNK         0.0680 
     80 H80       -76.2651   31.9643  -71.4456 H         1 UNK         0.0680 
     81 H81       -74.4043   29.3605  -72.2228 H         1 UNK         0.1032 
     82 H82       -74.5003   30.8627  -73.0997 H         1 UNK         0.1032 
     83 H83       -71.9626   31.1181  -72.7208 H         1 UNK         0.0461 
     84 H84       -71.0499   27.2039  -71.8551 H         1 UNK         0.3453 
     85 H85       -72.1142   27.5629  -73.2022 H         1 UNK         0.3453 
     86 H86       -73.1345   29.1736  -74.6023 H         1 UNK         0.2984 
     87 H87       -72.5251   30.3455  -76.9687 H         1 UNK         0.0554 
     88 H88       -70.6424   29.8687  -78.5404 H         1 UNK         0.0847 
     89 H89       -69.5410   29.6904  -77.1749 H         1 UNK         0.0847 
     90 H90       -70.2981   31.2400  -77.5005 H         1 UNK         0.0847 
     91 H91       -72.9534   28.2046  -77.0940 H         1 UNK         0.3141 
     92 H92       -71.3869   25.4957  -77.5798 H         1 UNK         0.0743 
     93 H93       -70.5179   24.7925  -75.3893 H         1 UNK         0.0784 
     94 H94       -71.9775   25.3301  -74.5756 H         1 UNK         0.0784 
     95 H95       -72.0353   23.9653  -75.6900 H         1 UNK         0.0784 
     96 H96       -73.8840   26.0950  -76.0804 H         1 UNK         0.3213 
     97 H97       -75.6722   26.9536  -78.9170 H         1 UNK         0.0855 
     98 H98       -75.9838   24.1936  -77.6197 H         1 UNK         0.0814 
     99 H99       -75.9898   24.5566  -79.3366 H         1 UNK         0.0814 
    100 H100      -77.3059   25.1282  -78.3213 H         1 UNK         0.0814 
    101 H101      -76.4055   26.2785  -76.1965 H         1 UNK         0.3105 
    102 H102      -75.3612   29.3562  -74.7582 H         1 UNK         0.0547 
    103 H103      -77.7708   29.5918  -74.1408 H         1 UNK         0.0837 
    104 H104      -77.4530   30.1225  -75.7843 H         1 UNK         0.0837 
    105 H105      -78.2034   28.5612  -75.5091 H         1 UNK         0.0837 
    106 H106      -76.9274   27.1927  -73.7202 H         1 UNK         0.3020 
    107 H107      -74.2534   24.9844  -73.1121 H         1 UNK         0.1245 
    108 H108      -74.6414   27.1631  -71.1639 H         1 UNK         0.0781 
    109 H109      -73.5235   25.8611  -71.1773 H         1 UNK         0.0781 
    110 H110      -76.6933   26.2532  -68.1122 H         1 UNK         0.0836 
    111 H111      -75.1233   26.9865  -68.3163 H         1 UNK         0.0836 
    112 H112      -76.6678   24.6823  -71.9350 H         1 UNK         0.3022 
    113 H113      -77.3359   22.4224  -73.1896 H         1 UNK         0.0747 
    114 H114      -78.7670   24.2505  -72.0193 H         1 UNK         0.0793 
    115 H115      -79.6608   22.8695  -72.6245 H         1 UNK         0.0793 
    116 H116      -79.6724   24.3715  -73.5277 H         1 UNK         0.0793 
    117 H117      -78.0471   23.4044  -75.7929 H         1 UNK         0.3047 
    118 H118      -78.2671   21.0394  -77.2973 H         1 UNK         0.0822 
    119 H119      -79.7866   19.2377  -76.5733 H         1 UNK         0.0807 
    120 H120      -80.4395   20.0096  -78.0078 H         1 UNK         0.0807 
    121 H121      -81.1257   20.3649  -76.4229 H         1 UNK         0.0807 
    122 H122      -79.1276   22.8266  -78.2754 H         1 UNK         0.2946 
    123 H123      -80.0642   24.8188  -78.5090 H         1 UNK         0.1144 
    124 H124      -81.8249   23.4585  -79.6509 H         1 UNK         0.0793 
    125 H125      -82.2761   25.1554  -79.6174 H         1 UNK         0.0793 
    126 H126      -83.0312   24.0174  -78.5008 H         1 UNK         0.0793 
    127 H127      -82.3457   25.8828  -77.0423 H         1 UNK         0.2896 
@<TRIPOS>BOND
     1    1    2 1    
     2    1   67 1    
     3    1   68 1    
     4    1   69 1    
     5    2    3 2    
     6    2    4 am   BACKBONE|DICT|INTERRES
     7    4    5 1    
     8    4   70 1    
     9    5    6 1    
    10    5   65 1    
    11    5   71 1    
    12    6    7 1    
    13    6   72 1    
    14    6   73 1    
    15    7    8 1    
    16    8    9 1    
    17    8   74 1    
    18    8   75 1    
    19    9   10 ar   
    20    9   14 ar   
    21   10   11 ar   
    22   10   76 1    
    23   11   12 ar   
    24   11   48 1    
    25   12   13 ar   
    26   12   77 1    
    27   13   14 ar   
    28   13   15 1    
    29   14   78 1    
    30   15   16 1    
    31   15   79 1    
    32   15   80 1    
    33   16   17 1    
    34   17   18 1    
    35   17   81 1    
    36   17   82 1    
    37   18   19 1    
    38   18   22 1    
    39   18   83 1    
    40   19   20 am   BACKBONE|DICT|INTERRES
    41   19   21 2    
    42   20   84 1    
    43   20   85 1    
    44   22   23 am   BACKBONE|DICT|INTERRES
    45   22   86 1    
    46   23   24 2    
    47   23   25 1    
    48   25   26 1    
    49   25   27 1    
    50   25   87 1    
    51   26   88 1    
    52   26   89 1    
    53   26   90 1    
    54   27   28 am   BACKBONE|DICT|INTERRES
    55   27   91 1    
    56   28   29 2    
    57   28   30 1    
    58   30   31 1    
    59   30   32 1    
    60   30   92 1    
    61   31   93 1    
    62   31   94 1    
    63   31   95 1    
    64   32   33 am   BACKBONE|DICT|INTERRES
    65   32   96 1    
    66   33   34 2    
    67   33   35 1    
    68   35   36 1    
    69   35   37 1    
    70   35   97 1    
    71   36   98 1    
    72   36   99 1    
    73   36  100 1    
    74   37   38 am   BACKBONE|DICT|INTERRES
    75   37  101 1    
    76   38   39 2    
    77   38   40 1    
    78   40   41 1    
    79   40   42 1    
    80   40  102 1    
    81   41  103 1    
    82   41  104 1    
    83   41  105 1    
    84   42   43 am   BACKBONE|DICT|INTERRES
    85   42  106 1    
    86   43   44 2    
    87   43   45 1    
    88   45   46 1    
    89   45   49 1    
    90   45  107 1    
    91   46   47 1    
    92   46  108 1    
    93   46  109 1    
    94   47   48 1    
    95   48  110 1    
    96   48  111 1    
    97   49   50 am   BACKBONE|DICT|INTERRES
    98   49  112 1    
    99   50   51 2    
   100   50   52 1    
   101   52   53 1    
   102   52   54 1    
   103   52  113 1    
   104   53  114 1    
   105   53  115 1    
   106   53  116 1    
   107   54   55 am   BACKBONE|DICT|INTERRES
   108   54  117 1    
   109   55   56 2    
   110   55   57 1    
   111   57   58 1    
   112   57   59 1    
   113   57  118 1    
   114   58  119 1    
   115   58  120 1    
   116   58  121 1    
   117   59   60 am   BACKBONE|DICT|INTERRES
   118   59  122 1    
   119   60   61 2    
   120   60   62 1    
   121   62   63 1    
   122   62   64 1    
   123   62  123 1    
   124   63  124 1    
   125   63  125 1    
   126   63  126 1    
   127   64   65 am   BACKBONE|DICT|INTERRES
   128   64  127 1    
   129   65   66 2    
@<TRIPOS>SUBSTRUCTURE
     1 UNK         1 GROUP             0       ****    0 ROOT    
