@<TRIPOS>MOLECULE
3R135
127   129    1
SMALL
USER_CHARGES


@<TRIPOS>ATOM
      1 CA        -81.6918   31.3282  -78.3834 C.3       0 UNK        -0.1998 
      2 C         -81.1653   30.2467  -77.4518 C.2       0 UNK         0.4909 
      3 O         -80.3517   29.4220  -77.8694 O.2       0 UNK        -0.5240 
      4 N         -81.6160   30.2485  -76.1905 N.am      1 UNK        -0.4739 
      5 CA        -81.2707   29.2415  -75.1825 C.3       1 UNK         0.0864 
      6 C6        -81.5200   29.7875  -73.7531 C.3       11 UNK        -0.0881 
      7 S7        -80.6943   28.8225  -72.4429 S.3       11 UNK        -0.2682 
      8 C8        -78.9707   29.4091  -72.5746 C.3       11 UNK         0.0289 
      9 C9        -78.0199   28.6728  -71.6344 C.ar      11 UNK        -0.0687 
     10 C10       -78.0832   27.2818  -71.4791 C.ar      11 UNK        -0.0823 
     11 C11       -77.2179   26.6207  -70.6019 C.ar      11 UNK        -0.0830 
     12 C12       -76.2538   27.3553  -69.9061 C.ar      11 UNK        -0.1021 
     13 C13       -76.1701   28.7422  -70.0592 C.ar      11 UNK        -0.0753 
     14 C14       -77.0588   29.3945  -70.9194 C.ar      11 UNK        -0.0933 
     15 C15       -75.1451   29.5342  -69.2601 C.3       11 UNK         0.0166 
     16 S16       -73.5877   29.7573  -70.1757 S.3       11 UNK        -0.2615 
     17 C17       -73.9978   31.1500  -71.2858 C.3       11 UNK        -0.0865 
     18 CA        -74.1164   30.7314  -72.7748 C.3       10 UNK         0.0862 
     19 C         -74.6247   31.9291  -73.6303 C.2       10 UNK         0.5551 
     20 N         -73.8184   32.5091  -74.5108 N.am      10 UNK        -0.7319 
     21 O         -75.7729   32.3403  -73.4831 O.2       10 UNK        -0.5018 
     22 N         -72.8772   30.0878  -73.2440 N.am      10 UNK        -0.4509 
     23 C         -72.7324   29.4165  -74.3927 C.2       10 UNK         0.4899 
     24 O         -73.6103   29.3363  -75.2510 O.2       10 UNK        -0.4839 
     25 CA        -71.3810   28.7221  -74.6311 C.3       9 UNK         0.0222 
     26 CB        -70.5591   28.4832  -73.3431 C.3       9 UNK        -0.1966 
     27 N         -71.6161   27.4534  -75.3177 N.am      9 UNK        -0.4218 
     28 C         -70.7281   26.8128  -76.0871 C.2       9 UNK         0.5020 
     29 O         -69.5942   27.2346  -76.3219 O.2       9 UNK        -0.5274 
     30 CA        -71.1600   25.4637  -76.6867 C.3       8 UNK         0.0270 
     31 CB        -70.9846   24.3365  -75.6556 C.3       8 UNK        -0.1976 
     32 N         -72.5361   25.4533  -77.1843 N.am      8 UNK        -0.4313 
     33 C         -72.9730   26.1299  -78.2561 C.2       8 UNK         0.5041 
     34 O         -72.2581   26.8508  -78.9533 O.2       8 UNK        -0.5577 
     35 CA        -74.4591   25.9718  -78.6124 C.3       7 UNK         0.0284 
     36 CB        -74.7148   24.6511  -79.3581 C.3       7 UNK        -0.1958 
     37 N         -75.2880   26.0350  -77.4086 N.am      7 UNK        -0.4454 
     38 C         -75.7619   27.1741  -76.8860 C.2       7 UNK         0.5089 
     39 O         -75.6801   28.2652  -77.4506 O.2       7 UNK        -0.5125 
     40 CA        -76.4645   27.0927  -75.5177 C.3       6 UNK         0.0408 
     41 CB        -77.9829   27.2078  -75.6980 C.3       6 UNK        -0.1791 
     42 N         -76.1658   25.8684  -74.7705 N.am      6 UNK        -0.4762 
     43 C         -74.9979   25.6099  -74.1633 C.2       6 UNK         0.5007 
     44 O         -74.0389   26.3795  -74.1649 O.2       6 UNK        -0.5032 
     45 CA        -74.8345   24.2191  -73.5167 C.3       5 UNK         0.0783 
     46 C46       -75.2938   24.1999  -72.0374 C.3       11 UNK        -0.0857 
     47 S47       -77.1068   24.1187  -71.8397 S.3       11 UNK        -0.2512 
     48 C48       -77.3727   25.1263  -70.3500 C.3       11 UNK         0.0225 
     49 N         -75.4538   23.1508  -74.3090 N.am      5 UNK        -0.4615 
     50 C         -75.1246   22.8393  -75.5683 C.2       4 UNK         0.5053 
     51 O         -74.2217   23.3994  -76.1885 O.2       4 UNK        -0.5105 
     52 CA        -75.9575   21.7548  -76.2707 C.3       4 UNK         0.0263 
     53 CB        -75.2591   20.3909  -76.1575 C.3       4 UNK        -0.1981 
     54 N         -77.3332   21.6430  -75.7717 N.am      4 UNK        -0.4224 
     55 C         -78.2747   22.5902  -75.8961 C.2       3 UNK         0.4895 
     56 O         -78.0715   23.6746  -76.4469 O.2       3 UNK        -0.5091 
     57 CA        -79.6716   22.2301  -75.3444 C.3       3 UNK         0.0250 
     58 CB        -79.6161   21.7174  -73.8875 C.3       3 UNK        -0.1996 
     59 N         -80.6645   23.3076  -75.4746 N.am      3 UNK        -0.4254 
     60 C         -80.6557   24.5063  -74.8732 C.2       2 UNK         0.5004 
     61 O         -79.7895   24.8919  -74.0835 O.2       2 UNK        -0.5226 
     62 CA        -81.8431   25.4265  -75.1837 C.3       2 UNK         0.0269 
     63 CB        -83.0409   25.1017  -74.2707 C.3       2 UNK        -0.1926 
     64 N         -81.4103   26.8039  -74.9779 N.am      2 UNK        -0.4687 
     65 C         -81.9961   27.9036  -75.4602 C.2       1 UNK         0.5165 
     66 O         -83.0551   27.8897  -76.0944 O.2       1 UNK        -0.5079 
     67 H67       -82.2028   30.8749  -79.2323 H         1 UNK         0.0900 
     68 H68       -80.8669   31.9302  -78.7634 H         1 UNK         0.0900 
     69 H69       -82.3938   31.9934  -77.8809 H         1 UNK         0.0900 
     70 H70       -82.3112   30.9273  -75.9145 H         1 UNK         0.2959 
     71 H71       -80.2021   29.0557  -75.2882 H         1 UNK         0.1079 
     72 H72       -81.1644   30.8166  -73.6763 H         1 UNK         0.0837 
     73 H73       -82.5894   29.8267  -73.5370 H         1 UNK         0.0837 
     74 H74       -78.9571   30.4803  -72.3671 H         1 UNK         0.0685 
     75 H75       -78.6086   29.2889  -73.5947 H         1 UNK         0.0685 
     76 H76       -78.8215   26.7084  -72.0240 H         1 UNK         0.1434 
     77 H77       -75.5817   26.8522  -69.2242 H         1 UNK         0.1329 
     78 H78       -77.0035   30.4683  -71.0316 H         1 UNK         0.1335 
     79 H79       -75.5525   30.5030  -68.9671 H         1 UNK         0.0680 
     80 H80       -74.9237   29.0119  -68.3281 H         1 UNK         0.0680 
     81 H81       -74.9186   31.6249  -70.9434 H         1 UNK         0.1032 
     82 H82       -73.2214   31.9090  -71.1722 H         1 UNK         0.1032 
     83 H83       -74.8974   29.9713  -72.8413 H         1 UNK         0.0461 
     84 H84       -74.1585   33.2825  -75.0599 H         1 UNK         0.3453 
     85 H85       -72.8804   32.1672  -74.6431 H         1 UNK         0.3453 
     86 H86       -72.1084   30.0967  -72.5909 H         1 UNK         0.2984 
     87 H87       -70.8106   29.3766  -75.2930 H         1 UNK         0.0554 
     88 H88       -69.6307   27.9533  -73.5564 H         1 UNK         0.0847 
     89 H89       -71.1159   27.8906  -72.6156 H         1 UNK         0.0847 
     90 H90       -70.2759   29.4223  -72.8667 H         1 UNK         0.0847 
     91 H91       -72.5416   27.0541  -75.1694 H         1 UNK         0.3141 
     92 H92       -70.5017   25.2530  -77.5322 H         1 UNK         0.0743 
     93 H93       -69.9566   24.2952  -75.2930 H         1 UNK         0.0784 
     94 H94       -71.6314   24.4791  -74.7893 H         1 UNK         0.0784 
     95 H95       -71.2157   23.3629  -76.0886 H         1 UNK         0.0784 
     96 H96       -73.1819   24.8197  -76.7172 H         1 UNK         0.3213 
     97 H97       -74.7313   26.7880  -79.2856 H         1 UNK         0.0855 
     98 H98       -74.4230   23.7807  -78.7708 H         1 UNK         0.0814 
     99 H99       -74.1464   24.6174  -80.2884 H         1 UNK         0.0814 
    100 H100      -75.7678   24.5410  -79.6180 H         1 UNK         0.0814 
    101 H101      -75.4007   25.1804  -76.8796 H         1 UNK         0.3105 
    102 H102      -76.1265   27.9444  -74.9230 H         1 UNK         0.0547 
    103 H103      -78.3836   26.3816  -76.2864 H         1 UNK         0.0837 
    104 H104      -78.4897   27.2100  -74.7346 H         1 UNK         0.0837 
    105 H105      -78.2430   28.1316  -76.2161 H         1 UNK         0.0837 
    106 H106      -76.8958   25.1671  -74.7386 H         1 UNK         0.3020 
    107 H107      -73.7607   24.0184  -73.5178 H         1 UNK         0.1245 
    108 H108      -74.8964   25.0634  -71.4999 H         1 UNK         0.0781 
    109 H109      -74.8724   23.3257  -71.5392 H         1 UNK         0.0781 
    110 H110      -76.6983   24.7859  -69.5626 H         1 UNK         0.0836 
    111 H111      -78.3833   24.9400  -69.9841 H         1 UNK         0.0836 
    112 H112      -76.2244   22.6674  -73.8711 H         1 UNK         0.3022 
    113 H113      -76.0094   22.0240  -77.3279 H         1 UNK         0.0747 
    114 H114      -75.7837   19.6266  -76.7313 H         1 UNK         0.0793 
    115 H115      -74.2405   20.4413  -76.5456 H         1 UNK         0.0793 
    116 H116      -75.1967   20.0524  -75.1224 H         1 UNK         0.0793 
    117 H117      -77.5796   20.7717  -75.3245 H         1 UNK         0.3047 
    118 H118      -80.0402   21.4147  -75.9687 H         1 UNK         0.0822 
    119 H119      -79.0335   20.8001  -73.8017 H         1 UNK         0.0807 
    120 H120      -80.6143   21.4923  -73.5116 H         1 UNK         0.0807 
    121 H121      -79.1695   22.4504  -73.2160 H         1 UNK         0.0807 
    122 H122      -81.4174   23.1123  -76.1196 H         1 UNK         0.2946 
    123 H123      -82.1270   25.2974  -76.2307 H         1 UNK         0.1144 
    124 H124      -82.7914   25.2452  -73.2185 H         1 UNK         0.0793 
    125 H125      -83.3588   24.0656  -74.3931 H         1 UNK         0.0793 
    126 H126      -83.9012   25.7310  -74.4989 H         1 UNK         0.0793 
    127 H127      -80.5563   26.8768  -74.4376 H         1 UNK         0.2896 
@<TRIPOS>BOND
     1    1    2 1    
     2    1   67 1    
     3    1   68 1    
     4    1   69 1    
     5    2    3 2    
     6    2    4 am   BACKBONE|DICT|INTERRES
     7    4    5 1    
     8    4   70 1    
     9    5    6 1    
    10    5   65 1    
    11    5   71 1    
    12    6    7 1    
    13    6   72 1    
    14    6   73 1    
    15    7    8 1    
    16    8    9 1    
    17    8   74 1    
    18    8   75 1    
    19    9   10 ar   
    20    9   14 ar   
    21   10   11 ar   
    22   10   76 1    
    23   11   12 ar   
    24   11   48 1    
    25   12   13 ar   
    26   12   77 1    
    27   13   14 ar   
    28   13   15 1    
    29   14   78 1    
    30   15   16 1    
    31   15   79 1    
    32   15   80 1    
    33   16   17 1    
    34   17   18 1    
    35   17   81 1    
    36   17   82 1    
    37   18   19 1    
    38   18   22 1    
    39   18   83 1    
    40   19   20 am   BACKBONE|DICT|INTERRES
    41   19   21 2    
    42   20   84 1    
    43   20   85 1    
    44   22   23 am   BACKBONE|DICT|INTERRES
    45   22   86 1    
    46   23   24 2    
    47   23   25 1    
    48   25   26 1    
    49   25   27 1    
    50   25   87 1    
    51   26   88 1    
    52   26   89 1    
    53   26   90 1    
    54   27   28 am   BACKBONE|DICT|INTERRES
    55   27   91 1    
    56   28   29 2    
    57   28   30 1    
    58   30   31 1    
    59   30   32 1    
    60   30   92 1    
    61   31   93 1    
    62   31   94 1    
    63   31   95 1    
    64   32   33 am   BACKBONE|DICT|INTERRES
    65   32   96 1    
    66   33   34 2    
    67   33   35 1    
    68   35   36 1    
    69   35   37 1    
    70   35   97 1    
    71   36   98 1    
    72   36   99 1    
    73   36  100 1    
    74   37   38 am   BACKBONE|DICT|INTERRES
    75   37  101 1    
    76   38   39 2    
    77   38   40 1    
    78   40   41 1    
    79   40   42 1    
    80   40  102 1    
    81   41  103 1    
    82   41  104 1    
    83   41  105 1    
    84   42   43 am   BACKBONE|DICT|INTERRES
    85   42  106 1    
    86   43   44 2    
    87   43   45 1    
    88   45   46 1    
    89   45   49 1    
    90   45  107 1    
    91   46   47 1    
    92   46  108 1    
    93   46  109 1    
    94   47   48 1    
    95   48  110 1    
    96   48  111 1    
    97   49   50 am   BACKBONE|DICT|INTERRES
    98   49  112 1    
    99   50   51 2    
   100   50   52 1    
   101   52   53 1    
   102   52   54 1    
   103   52  113 1    
   104   53  114 1    
   105   53  115 1    
   106   53  116 1    
   107   54   55 am   BACKBONE|DICT|INTERRES
   108   54  117 1    
   109   55   56 2    
   110   55   57 1    
   111   57   58 1    
   112   57   59 1    
   113   57  118 1    
   114   58  119 1    
   115   58  120 1    
   116   58  121 1    
   117   59   60 am   BACKBONE|DICT|INTERRES
   118   59  122 1    
   119   60   61 2    
   120   60   62 1    
   121   62   63 1    
   122   62   64 1    
   123   62  123 1    
   124   63  124 1    
   125   63  125 1    
   126   63  126 1    
   127   64   65 am   BACKBONE|DICT|INTERRES
   128   64  127 1    
   129   65   66 2    
@<TRIPOS>SUBSTRUCTURE
     1 UNK         1 GROUP             0       ****    0 ROOT    
