@<TRIPOS>MOLECULE
3R135
127   129    1
SMALL
USER_CHARGES


@<TRIPOS>ATOM
      1 CA        -84.0660   26.1970  -75.7317 C.3       0 UNK        -0.1998 
      2 C         -83.0389   27.2002  -75.2303 C.2       0 UNK         0.4909 
      3 O         -82.4299   27.9068  -76.0340 O.2       0 UNK        -0.5240 
      4 N         -82.8331   27.2678  -73.9078 N.am      1 UNK        -0.4739 
      5 CA        -81.8102   28.1047  -73.2713 C.3       1 UNK         0.0864 
      6 C6        -82.0045   28.1620  -71.7368 C.3       11 UNK        -0.0881 
      7 S7        -81.1292   29.5674  -70.9642 S.3       11 UNK        -0.2682 
      8 C8        -80.1539   28.7521  -69.6581 C.3       11 UNK         0.0289 
      9 C9        -78.9052   28.0765  -70.2070 C.ar      11 UNK        -0.0687 
     10 C10       -78.9295   26.7261  -70.5604 C.ar      11 UNK        -0.0823 
     11 C11       -77.7909   26.0916  -71.0649 C.ar      11 UNK        -0.0830 
     12 C12       -76.6079   26.8316  -71.2037 C.ar      11 UNK        -0.1021 
     13 C13       -76.5636   28.1839  -70.8468 C.ar      11 UNK        -0.0753 
     14 C14       -77.7164   28.7971  -70.3433 C.ar      11 UNK        -0.0933 
     15 C15       -75.2600   28.9650  -70.9776 C.3       11 UNK         0.0166 
     16 S16       -75.4798   30.5532  -71.8415 S.3       11 UNK        -0.2615 
     17 C17       -73.7665   31.1796  -71.9011 C.3       11 UNK        -0.0865 
     18 CA        -73.3225   31.5230  -73.3476 C.3       10 UNK         0.0862 
     19 C         -71.9571   32.2739  -73.3663 C.2       10 UNK         0.5551 
     20 N         -70.9544   31.8408  -74.1216 N.am      10 UNK        -0.7319 
     21 O         -71.8062   33.2842  -72.6834 O.2       10 UNK        -0.5018 
     22 N         -73.3792   30.3444  -74.2273 N.am      10 UNK        -0.4509 
     23 C         -73.5992   30.3853  -75.5464 C.2       10 UNK         0.4899 
     24 O         -73.8464   31.4195  -76.1689 O.2       10 UNK        -0.4839 
     25 CA        -73.5162   29.0354  -76.2877 C.3       9 UNK         0.0222 
     26 CB        -73.4313   29.2005  -77.8190 C.3       9 UNK        -0.1966 
     27 N         -72.4296   28.1703  -75.8108 N.am      9 UNK        -0.4218 
     28 C         -71.1212   28.4515  -75.7280 C.2       9 UNK         0.5020 
     29 O         -70.6396   29.5567  -75.9786 O.2       9 UNK        -0.5274 
     30 CA        -70.1780   27.3109  -75.2965 C.3       8 UNK         0.0270 
     31 CB        -70.1003   27.2094  -73.7598 C.3       8 UNK        -0.1976 
     32 N         -70.4704   26.0085  -75.9206 N.am      8 UNK        -0.4313 
     33 C         -71.5537   25.2360  -75.7650 C.2       8 UNK         0.5041 
     34 O         -72.4764   25.4927  -74.9856 O.2       8 UNK        -0.5577 
     35 CA        -71.6368   23.9814  -76.6490 C.3       7 UNK         0.0284 
     36 CB        -71.1113   22.7518  -75.8919 C.3       7 UNK        -0.1958 
     37 N         -73.0214   23.7405  -77.0513 N.am      7 UNK        -0.4454 
     38 C         -73.7324   24.5122  -77.8815 C.2       7 UNK         0.5089 
     39 O         -73.2393   25.4097  -78.5656 O.2       7 UNK        -0.5125 
     40 CA        -75.2529   24.2717  -77.9395 C.3       6 UNK         0.0408 
     41 CB        -75.6061   23.1237  -78.9036 C.3       6 UNK        -0.1791 
     42 N         -75.8907   24.0949  -76.6255 N.am      6 UNK        -0.4762 
     43 C         -75.7525   23.0908  -75.7445 C.2       6 UNK         0.5007 
     44 O         -75.0160   22.1191  -75.9197 O.2       6 UNK        -0.5032 
     45 CA        -76.5763   23.1830  -74.4486 C.3       5 UNK         0.0783 
     46 C46       -75.9186   24.1444  -73.4259 C.3       11 UNK        -0.0857 
     47 S47       -76.3576   23.7041  -71.7118 S.3       11 UNK        -0.2512 
     48 C48       -77.9172   24.6164  -71.4495 C.3       11 UNK         0.0225 
     49 N         -77.9522   23.5731  -74.7610 N.am      5 UNK        -0.4615 
     50 C         -78.9009   22.7365  -75.2021 C.2       4 UNK         0.5053 
     51 O         -78.7566   21.5167  -75.2831 O.2       4 UNK        -0.5105 
     52 CA        -80.2320   23.3692  -75.6446 C.3       4 UNK         0.0263 
     53 CB        -81.2394   23.3883  -74.4833 C.3       4 UNK        -0.1981 
     54 N         -80.0429   24.7256  -76.1690 N.am      4 UNK        -0.4224 
     55 C         -79.5301   24.9839  -77.3838 C.2       3 UNK         0.4895 
     56 O         -79.2779   24.1092  -78.2126 O.2       3 UNK        -0.5091 
     57 CA        -79.2244   26.4485  -77.7482 C.3       3 UNK         0.0250 
     58 CB        -80.2950   27.0034  -78.7012 C.3       3 UNK        -0.1996 
     59 N         -79.0956   27.3341  -76.5888 N.am      3 UNK        -0.4254 
     60 C         -78.0790   27.2997  -75.7141 C.2       2 UNK         0.5004 
     61 O         -77.1328   26.5176  -75.8017 O.2       2 UNK        -0.5226 
     62 CA        -78.1565   28.2586  -74.5119 C.3       2 UNK         0.0269 
     63 CB        -77.4590   29.5855  -74.8431 C.3       2 UNK        -0.1926 
     64 N         -79.5230   28.5385  -74.0585 N.am      2 UNK        -0.4687 
     65 C         -80.4045   27.6090  -73.6666 C.2       1 UNK         0.5165 
     66 O         -80.1599   26.4002  -73.6515 O.2       1 UNK        -0.5079 
     67 H67       -84.5115   25.6272  -74.9165 H         1 UNK         0.0900 
     68 H68       -83.5964   25.4946  -76.4199 H         1 UNK         0.0900 
     69 H69       -84.8653   26.7128  -76.2631 H         1 UNK         0.0900 
     70 H70       -83.3401   26.6469  -73.2936 H         1 UNK         0.2959 
     71 H71       -81.9436   29.1141  -73.6680 H         1 UNK         0.1079 
     72 H72       -83.0628   28.2961  -71.5070 H         1 UNK         0.0837 
     73 H73       -81.7230   27.2180  -71.2695 H         1 UNK         0.0837 
     74 H74       -79.8655   29.5034  -68.9213 H         1 UNK         0.0685 
     75 H75       -80.7782   28.0338  -69.1244 H         1 UNK         0.0685 
     76 H76       -79.8448   26.1618  -70.4499 H         1 UNK         0.1434 
     77 H77       -75.7125   26.3637  -71.5857 H         1 UNK         0.1329 
     78 H78       -77.6894   29.8406  -70.0605 H         1 UNK         0.1335 
     79 H79       -74.5138   28.3766  -71.5142 H         1 UNK         0.0680 
     80 H80       -74.8583   29.1507  -69.9806 H         1 UNK         0.0680 
     81 H81       -73.0817   30.4575  -71.4530 H         1 UNK         0.1032 
     82 H82       -73.7256   32.0663  -71.2655 H         1 UNK         0.1032 
     83 H83       -74.0433   32.2495  -73.7282 H         1 UNK         0.0461 
     84 H84       -70.0854   32.3503  -74.1164 H         1 UNK         0.3453 
     85 H85       -71.0539   31.0307  -74.7241 H         1 UNK         0.3453 
     86 H86       -73.1710   29.4554  -73.7989 H         1 UNK         0.2984 
     87 H87       -74.4420   28.5029  -76.0663 H         1 UNK         0.0554 
     88 H88       -73.4069   28.2329  -78.3206 H         1 UNK         0.0847 
     89 H89       -72.5398   29.7545  -78.1154 H         1 UNK         0.0847 
     90 H90       -74.2962   29.7413  -78.2049 H         1 UNK         0.0847 
     91 H91       -72.6961   27.2264  -75.5302 H         1 UNK         0.3141 
     92 H92       -69.1832   27.5852  -75.6517 H         1 UNK         0.0743 
     93 H93       -71.0635   26.9605  -73.3134 H         1 UNK         0.0784 
     94 H94       -69.3818   26.4508  -73.4493 H         1 UNK         0.0784 
     95 H95       -69.7794   28.1570  -73.3248 H         1 UNK         0.0784 
     96 H96       -69.7866   25.7115  -76.6042 H         1 UNK         0.3213 
     97 H97       -71.0373   24.1306  -77.5496 H         1 UNK         0.0855 
     98 H98       -71.6881   22.5606  -74.9857 H         1 UNK         0.0814 
     99 H99       -70.0712   22.8903  -75.5938 H         1 UNK         0.0814 
    100 H100      -71.1543   21.8558  -76.5115 H         1 UNK         0.0814 
    101 H101      -73.5415   23.0434  -76.5245 H         1 UNK         0.3105 
    102 H102      -75.6949   25.1825  -78.3469 H         1 UNK         0.0547 
    103 H103      -75.2194   23.3250  -79.9033 H         1 UNK         0.0837 
    104 H104      -75.1855   22.1711  -78.5809 H         1 UNK         0.0837 
    105 H105      -76.6858   23.0012  -78.9921 H         1 UNK         0.0837 
    106 H106      -76.4491   24.8944  -76.3289 H         1 UNK         0.3020 
    107 H107      -76.5851   22.1766  -74.0223 H         1 UNK         0.1245 
    108 H108      -76.1783   25.1840  -73.6312 H         1 UNK         0.0781 
    109 H109      -74.8288   24.0942  -73.4847 H         1 UNK         0.0781 
    110 H110      -78.4559   24.0988  -70.6543 H         1 UNK         0.0836 
    111 H111      -78.5464   24.5367  -72.3351 H         1 UNK         0.0836 
    112 H112      -78.1521   24.5630  -74.7468 H         1 UNK         0.3022 
    113 H113      -80.6495   22.7466  -76.4390 H         1 UNK         0.0747 
    114 H114      -82.1766   23.8615  -74.7750 H         1 UNK         0.0793 
    115 H115      -81.4752   22.3731  -74.1617 H         1 UNK         0.0793 
    116 H116      -80.8508   23.9174  -73.6132 H         1 UNK         0.0793 
    117 H117      -80.2022   25.4894  -75.5203 H         1 UNK         0.3047 
    118 H118      -78.2682   26.4532  -78.2763 H         1 UNK         0.0822 
    119 H119      -80.0676   28.0253  -79.0050 H         1 UNK         0.0807 
    120 H120      -81.2849   26.9997  -78.2446 H         1 UNK         0.0807 
    121 H121      -80.3560   26.4026  -79.6097 H         1 UNK         0.0807 
    122 H122      -79.8582   27.9768  -76.4199 H         1 UNK         0.2946 
    123 H123      -77.6280   27.7854  -73.6822 H         1 UNK         0.1144 
    124 H124      -77.9138   30.0815  -75.7015 H         1 UNK         0.0793 
    125 H125      -76.4081   29.4217  -75.0772 H         1 UNK         0.0793 
    126 H126      -77.4959   30.2752  -74.0003 H         1 UNK         0.0793 
    127 H127      -79.7985   29.5098  -74.0349 H         1 UNK         0.2896 
@<TRIPOS>BOND
     1    1    2 1    
     2    1   67 1    
     3    1   68 1    
     4    1   69 1    
     5    2    3 2    
     6    2    4 am   BACKBONE|DICT|INTERRES
     7    4    5 1    
     8    4   70 1    
     9    5    6 1    
    10    5   65 1    
    11    5   71 1    
    12    6    7 1    
    13    6   72 1    
    14    6   73 1    
    15    7    8 1    
    16    8    9 1    
    17    8   74 1    
    18    8   75 1    
    19    9   10 ar   
    20    9   14 ar   
    21   10   11 ar   
    22   10   76 1    
    23   11   12 ar   
    24   11   48 1    
    25   12   13 ar   
    26   12   77 1    
    27   13   14 ar   
    28   13   15 1    
    29   14   78 1    
    30   15   16 1    
    31   15   79 1    
    32   15   80 1    
    33   16   17 1    
    34   17   18 1    
    35   17   81 1    
    36   17   82 1    
    37   18   19 1    
    38   18   22 1    
    39   18   83 1    
    40   19   20 am   BACKBONE|DICT|INTERRES
    41   19   21 2    
    42   20   84 1    
    43   20   85 1    
    44   22   23 am   BACKBONE|DICT|INTERRES
    45   22   86 1    
    46   23   24 2    
    47   23   25 1    
    48   25   26 1    
    49   25   27 1    
    50   25   87 1    
    51   26   88 1    
    52   26   89 1    
    53   26   90 1    
    54   27   28 am   BACKBONE|DICT|INTERRES
    55   27   91 1    
    56   28   29 2    
    57   28   30 1    
    58   30   31 1    
    59   30   32 1    
    60   30   92 1    
    61   31   93 1    
    62   31   94 1    
    63   31   95 1    
    64   32   33 am   BACKBONE|DICT|INTERRES
    65   32   96 1    
    66   33   34 2    
    67   33   35 1    
    68   35   36 1    
    69   35   37 1    
    70   35   97 1    
    71   36   98 1    
    72   36   99 1    
    73   36  100 1    
    74   37   38 am   BACKBONE|DICT|INTERRES
    75   37  101 1    
    76   38   39 2    
    77   38   40 1    
    78   40   41 1    
    79   40   42 1    
    80   40  102 1    
    81   41  103 1    
    82   41  104 1    
    83   41  105 1    
    84   42   43 am   BACKBONE|DICT|INTERRES
    85   42  106 1    
    86   43   44 2    
    87   43   45 1    
    88   45   46 1    
    89   45   49 1    
    90   45  107 1    
    91   46   47 1    
    92   46  108 1    
    93   46  109 1    
    94   47   48 1    
    95   48  110 1    
    96   48  111 1    
    97   49   50 am   BACKBONE|DICT|INTERRES
    98   49  112 1    
    99   50   51 2    
   100   50   52 1    
   101   52   53 1    
   102   52   54 1    
   103   52  113 1    
   104   53  114 1    
   105   53  115 1    
   106   53  116 1    
   107   54   55 am   BACKBONE|DICT|INTERRES
   108   54  117 1    
   109   55   56 2    
   110   55   57 1    
   111   57   58 1    
   112   57   59 1    
   113   57  118 1    
   114   58  119 1    
   115   58  120 1    
   116   58  121 1    
   117   59   60 am   BACKBONE|DICT|INTERRES
   118   59  122 1    
   119   60   61 2    
   120   60   62 1    
   121   62   63 1    
   122   62   64 1    
   123   62  123 1    
   124   63  124 1    
   125   63  125 1    
   126   63  126 1    
   127   64   65 am   BACKBONE|DICT|INTERRES
   128   64  127 1    
   129   65   66 2    
@<TRIPOS>SUBSTRUCTURE
     1 UNK         1 GROUP             0       ****    0 ROOT    
