@<TRIPOS>MOLECULE
3R135
127   129    1
SMALL
USER_CHARGES


@<TRIPOS>ATOM
      1 CA        -79.9096   32.5496  -75.4414 C.3       0 UNK        -0.1998 
      2 C         -79.2172   31.3915  -74.7387 C.2       0 UNK         0.4909 
      3 O         -77.9892   31.3554  -74.6928 O.2       0 UNK        -0.5240 
      4 N         -80.0007   30.4528  -74.1912 N.am      1 UNK        -0.4739 
      5 CA        -79.5341   29.2537  -73.4820 C.3       1 UNK         0.0864 
      6 C6        -80.7231   28.4872  -72.8445 C.3       11 UNK        -0.0881 
      7 S7        -81.3734   29.3678  -71.3809 S.3       11 UNK        -0.2682 
      8 C8        -80.9620   28.2367  -70.0042 C.3       11 UNK         0.0289 
      9 C9        -79.5272   27.7304  -70.0714 C.ar      11 UNK        -0.0687 
     10 C10       -79.2707   26.3797  -70.3263 C.ar      11 UNK        -0.0823 
     11 C11       -77.9627   25.9128  -70.4852 C.ar      11 UNK        -0.0830 
     12 C12       -76.9021   26.8233  -70.3671 C.ar      11 UNK        -0.1021 
     13 C13       -77.1451   28.1774  -70.1148 C.ar      11 UNK        -0.0753 
     14 C14       -78.4589   28.6194  -69.9401 C.ar      11 UNK        -0.0933 
     15 C15       -75.9942   29.1726  -70.0865 C.3       11 UNK         0.0166 
     16 S16       -76.1436   30.3571  -71.4621 S.3       11 UNK        -0.2615 
     17 C17       -74.4310   30.9519  -71.6591 C.3       11 UNK        -0.0865 
     18 CA        -74.1400   31.4076  -73.1152 C.3       10 UNK         0.0862 
     19 C         -72.7334   32.0700  -73.2250 C.2       10 UNK         0.5551 
     20 N         -71.8257   31.6026  -74.0741 N.am      10 UNK        -0.7319 
     21 O         -72.4605   33.0398  -72.5216 O.2       10 UNK        -0.5018 
     22 N         -74.3967   30.3293  -74.0846 N.am      10 UNK        -0.4509 
     23 C         -74.6160   30.5031  -75.3939 C.2       10 UNK         0.4899 
     24 O         -74.6614   31.6057  -75.9430 O.2       10 UNK        -0.4839 
     25 CA        -74.7634   29.2122  -76.2278 C.3       9 UNK         0.0222 
     26 CB        -74.7508   29.4717  -77.7477 C.3       9 UNK        -0.1966 
     27 N         -73.7737   28.1806  -75.8843 N.am      9 UNK        -0.4218 
     28 C         -72.4383   28.3153  -75.8130 C.2       9 UNK         0.5020 
     29 O         -71.8348   29.3673  -76.0258 O.2       9 UNK        -0.5274 
     30 CA        -71.6388   27.0669  -75.4173 C.3       8 UNK         0.0270 
     31 CB        -71.8117   26.7659  -73.9179 C.3       8 UNK        -0.1976 
     32 N         -72.0596   25.9079  -76.2042 N.am      8 UNK        -0.4313 
     33 C         -71.4049   25.4212  -77.2676 C.2       8 UNK         0.5041 
     34 O         -70.3306   25.8663  -77.6743 O.2       8 UNK        -0.5577 
     35 CA        -72.0423   24.2271  -78.0066 C.3       7 UNK         0.0284 
     36 CB        -71.4174   22.9061  -77.5286 C.3       7 UNK        -0.1958 
     37 N         -73.4972   24.1541  -77.8502 N.am      7 UNK        -0.4454 
     38 C         -74.3642   25.0208  -78.3912 C.2       7 UNK         0.5089 
     39 O         -74.0383   25.9171  -79.1691 O.2       7 UNK        -0.5125 
     40 CA        -75.8419   24.8917  -77.9730 C.3       6 UNK         0.0408 
     41 CB        -76.6365   24.1554  -79.0620 C.3       6 UNK        -0.1791 
     42 N         -76.0756   24.2518  -76.6659 N.am      6 UNK        -0.4762 
     43 C         -75.5788   24.6839  -75.4928 C.2       6 UNK         0.5007 
     44 O         -74.8225   25.6524  -75.4161 O.2       6 UNK        -0.5032 
     45 CA        -75.9429   23.9147  -74.2057 C.3       5 UNK         0.0783 
     46 C46       -76.0013   24.8550  -72.9756 C.3       11 UNK        -0.0857 
     47 S47       -76.1049   23.9442  -71.3984 S.3       11 UNK        -0.2512 
     48 C48       -77.7631   24.4265  -70.8029 C.3       11 UNK         0.0225 
     49 N         -77.1928   23.1723  -74.3802 N.am      5 UNK        -0.4615 
     50 C         -77.3031   21.8381  -74.4004 C.2       4 UNK         0.5053 
     51 O         -76.3488   21.0703  -74.2765 O.2       4 UNK        -0.5105 
     52 CA        -78.7122   21.2479  -74.6056 C.3       4 UNK         0.0263 
     53 CB        -79.3218   20.8457  -73.2527 C.3       4 UNK        -0.1981 
     54 N         -79.6385   22.1480  -75.2992 N.am      4 UNK        -0.4224 
     55 C         -79.4891   22.5850  -76.5571 C.2       3 UNK         0.4895 
     56 O         -78.5709   22.2298  -77.2963 O.2       3 UNK        -0.5091 
     57 CA        -80.4952   23.6354  -77.0658 C.3       3 UNK         0.0250 
     58 CB        -81.8081   23.6961  -76.2511 C.3       3 UNK        -0.1996 
     59 N         -79.8844   24.9691  -77.1562 N.am      3 UNK        -0.4254 
     60 C         -79.2850   25.6523  -76.1677 C.2       2 UNK         0.5004 
     61 O         -79.1746   25.2213  -75.0177 O.2       2 UNK        -0.5226 
     62 CA        -78.7004   27.0387  -76.5096 C.3       2 UNK         0.0269 
     63 CB        -78.9526   27.5037  -77.9585 C.3       2 UNK        -0.1926 
     64 N         -79.2347   28.0390  -75.5872 N.am      2 UNK        -0.4687 
     65 C         -78.7078   28.3185  -74.3870 C.2       1 UNK         0.5165 
     66 O         -77.6261   27.8825  -73.9941 O.2       1 UNK        -0.5079 
     67 H67       -80.9952   32.4606  -75.4044 H         1 UNK         0.0900 
     68 H68       -79.6077   32.5869  -76.4878 H         1 UNK         0.0900 
     69 H69       -79.6306   33.4928  -74.9725 H         1 UNK         0.0900 
     70 H70       -81.0036   30.5615  -74.2415 H         1 UNK         0.2959 
     71 H71       -78.8601   29.5811  -72.6871 H         1 UNK         0.1079 
     72 H72       -81.5341   28.3655  -73.5646 H         1 UNK         0.0837 
     73 H73       -80.4391   27.4717  -72.5660 H         1 UNK         0.0837 
     74 H74       -81.1175   28.7569  -69.0581 H         1 UNK         0.0685 
     75 H75       -81.6664   27.4035  -70.0155 H         1 UNK         0.0685 
     76 H76       -80.0979   25.6909  -70.4336 H         1 UNK         0.1434 
     77 H77       -75.8820   26.4933  -70.4977 H         1 UNK         0.1329 
     78 H78       -78.6533   29.6687  -69.7635 H         1 UNK         0.1335 
     79 H79       -75.0394   28.6491  -70.1516 H         1 UNK         0.0680 
     80 H80       -75.9936   29.7126  -69.1388 H         1 UNK         0.0680 
     81 H81       -73.7300   30.1691  -71.3647 H         1 UNK         0.1032 
     82 H82       -74.2831   31.7755  -70.9578 H         1 UNK         0.1032 
     83 H83       -74.8484   32.2065  -73.3438 H         1 UNK         0.0461 
     84 H84       -72.0303   30.8257  -74.6938 H         1 UNK         0.3453 
     85 H85       -70.9266   32.0539  -74.1248 H         1 UNK         0.3453 
     86 H86       -74.3920   29.3900  -73.7169 H         1 UNK         0.2984 
     87 H87       -75.7393   28.7964  -75.9725 H         1 UNK         0.0554 
     88 H88       -74.9022   28.5491  -78.3082 H         1 UNK         0.0847 
     89 H89       -73.8063   29.9098  -78.0722 H         1 UNK         0.0847 
     90 H90       -75.5474   30.1592  -78.0346 H         1 UNK         0.0847 
     91 H91       -74.1694   27.2675  -75.6612 H         1 UNK         0.3141 
     92 H92       -70.5818   27.2775  -75.5943 H         1 UNK         0.0743 
     93 H93       -72.8460   26.5354  -73.6607 H         1 UNK         0.0784 
     94 H94       -71.1970   25.9186  -73.6138 H         1 UNK         0.0784 
     95 H95       -71.5071   27.6202  -73.3116 H         1 UNK         0.0784 
     96 H96       -72.9699   25.5214  -75.9768 H         1 UNK         0.3213 
     97 H97       -71.8210   24.3454  -79.0698 H         1 UNK         0.0855 
     98 H98       -71.6141   22.7239  -76.4713 H         1 UNK         0.0814 
     99 H99       -70.3344   22.9178  -77.6604 H         1 UNK         0.0814 
    100 H100      -71.8007   22.0569  -78.0946 H         1 UNK         0.0814 
    101 H101      -73.8608   23.4339  -77.2435 H         1 UNK         0.3105 
    102 H102      -76.2272   25.9099  -77.9092 H         1 UNK         0.0547 
    103 H103      -76.4543   24.5906  -80.0458 H         1 UNK         0.0837 
    104 H104      -76.3645   23.1006  -79.1164 H         1 UNK         0.0837 
    105 H105      -77.7087   24.2158  -78.8835 H         1 UNK         0.0837 
    106 H106      -76.6861   23.4431  -76.6629 H         1 UNK         0.3020 
    107 H107      -75.1142   23.2212  -74.0469 H         1 UNK         0.1245 
    108 H108      -76.8430   25.5431  -73.0683 H         1 UNK         0.0781 
    109 H109      -75.1087   25.4795  -72.9099 H         1 UNK         0.0781 
    110 H110      -78.4920   24.1162  -71.5538 H         1 UNK         0.0836 
    111 H111      -77.9827   23.8500  -69.9034 H         1 UNK         0.0836 
    112 H112      -78.0231   23.7451  -74.5142 H         1 UNK         0.3022 
    113 H113      -78.6032   20.3487  -75.2155 H         1 UNK         0.0747 
    114 H114      -80.2844   20.3504  -73.3811 H         1 UNK         0.0793 
    115 H115      -78.6698   20.1499  -72.7225 H         1 UNK         0.0793 
    116 H116      -79.4703   21.7102  -72.6042 H         1 UNK         0.0793 
    117 H117      -80.4004   22.5249  -74.7543 H         1 UNK         0.3047 
    118 H118      -80.7531   23.3383  -78.0836 H         1 UNK         0.0822 
    119 H119      -82.5277   24.3626  -76.7267 H         1 UNK         0.0807 
    120 H120      -81.6541   24.0588  -75.2343 H         1 UNK         0.0807 
    121 H121      -82.2796   22.7142  -76.1881 H         1 UNK         0.0807 
    122 H122      -79.9122   25.3953  -78.0716 H         1 UNK         0.2946 
    123 H123      -77.6207   26.9641  -76.3659 H         1 UNK         0.1144 
    124 H124      -78.5160   26.8148  -78.6828 H         1 UNK         0.0793 
    125 H125      -78.4927   28.4761  -78.1374 H         1 UNK         0.0793 
    126 H126      -80.0163   27.5991  -78.1807 H         1 UNK         0.0793 
    127 H127      -80.1275   28.4464  -75.8241 H         1 UNK         0.2896 
@<TRIPOS>BOND
     1    1    2 1    
     2    1   67 1    
     3    1   68 1    
     4    1   69 1    
     5    2    3 2    
     6    2    4 am   BACKBONE|DICT|INTERRES
     7    4    5 1    
     8    4   70 1    
     9    5    6 1    
    10    5   65 1    
    11    5   71 1    
    12    6    7 1    
    13    6   72 1    
    14    6   73 1    
    15    7    8 1    
    16    8    9 1    
    17    8   74 1    
    18    8   75 1    
    19    9   10 ar   
    20    9   14 ar   
    21   10   11 ar   
    22   10   76 1    
    23   11   12 ar   
    24   11   48 1    
    25   12   13 ar   
    26   12   77 1    
    27   13   14 ar   
    28   13   15 1    
    29   14   78 1    
    30   15   16 1    
    31   15   79 1    
    32   15   80 1    
    33   16   17 1    
    34   17   18 1    
    35   17   81 1    
    36   17   82 1    
    37   18   19 1    
    38   18   22 1    
    39   18   83 1    
    40   19   20 am   BACKBONE|DICT|INTERRES
    41   19   21 2    
    42   20   84 1    
    43   20   85 1    
    44   22   23 am   BACKBONE|DICT|INTERRES
    45   22   86 1    
    46   23   24 2    
    47   23   25 1    
    48   25   26 1    
    49   25   27 1    
    50   25   87 1    
    51   26   88 1    
    52   26   89 1    
    53   26   90 1    
    54   27   28 am   BACKBONE|DICT|INTERRES
    55   27   91 1    
    56   28   29 2    
    57   28   30 1    
    58   30   31 1    
    59   30   32 1    
    60   30   92 1    
    61   31   93 1    
    62   31   94 1    
    63   31   95 1    
    64   32   33 am   BACKBONE|DICT|INTERRES
    65   32   96 1    
    66   33   34 2    
    67   33   35 1    
    68   35   36 1    
    69   35   37 1    
    70   35   97 1    
    71   36   98 1    
    72   36   99 1    
    73   36  100 1    
    74   37   38 am   BACKBONE|DICT|INTERRES
    75   37  101 1    
    76   38   39 2    
    77   38   40 1    
    78   40   41 1    
    79   40   42 1    
    80   40  102 1    
    81   41  103 1    
    82   41  104 1    
    83   41  105 1    
    84   42   43 am   BACKBONE|DICT|INTERRES
    85   42  106 1    
    86   43   44 2    
    87   43   45 1    
    88   45   46 1    
    89   45   49 1    
    90   45  107 1    
    91   46   47 1    
    92   46  108 1    
    93   46  109 1    
    94   47   48 1    
    95   48  110 1    
    96   48  111 1    
    97   49   50 am   BACKBONE|DICT|INTERRES
    98   49  112 1    
    99   50   51 2    
   100   50   52 1    
   101   52   53 1    
   102   52   54 1    
   103   52  113 1    
   104   53  114 1    
   105   53  115 1    
   106   53  116 1    
   107   54   55 am   BACKBONE|DICT|INTERRES
   108   54  117 1    
   109   55   56 2    
   110   55   57 1    
   111   57   58 1    
   112   57   59 1    
   113   57  118 1    
   114   58  119 1    
   115   58  120 1    
   116   58  121 1    
   117   59   60 am   BACKBONE|DICT|INTERRES
   118   59  122 1    
   119   60   61 2    
   120   60   62 1    
   121   62   63 1    
   122   62   64 1    
   123   62  123 1    
   124   63  124 1    
   125   63  125 1    
   126   63  126 1    
   127   64   65 am   BACKBONE|DICT|INTERRES
   128   64  127 1    
   129   65   66 2    
@<TRIPOS>SUBSTRUCTURE
     1 UNK         1 GROUP             0       ****    0 ROOT    
