@<TRIPOS>MOLECULE
3R135
127   129    1
SMALL
USER_CHARGES


@<TRIPOS>ATOM
      1 CA        -77.7749   28.5458  -74.4757 C.3       0 UNK        -0.1998 
      2 C         -78.9128   27.6115  -74.1006 C.2       0 UNK         0.4909 
      3 O         -78.8583   26.4155  -74.3940 O.2       0 UNK        -0.5240 
      4 N         -79.9551   28.1541  -73.4607 N.am      1 UNK        -0.4739 
      5 CA        -81.2004   27.4478  -73.1435 C.3       1 UNK         0.0864 
      6 C6        -82.0797   28.2600  -72.1578 C.3       11 UNK        -0.0881 
      7 S7        -81.7538   27.8069  -70.4218 S.3       11 UNK        -0.2682 
      8 C8        -80.5493   29.0708  -69.8834 C.3       11 UNK         0.0289 
      9 C9        -79.0942   28.7844  -70.2595 C.ar      11 UNK        -0.0687 
     10 C10       -78.5978   27.4791  -70.3766 C.ar      11 UNK        -0.0823 
     11 C11       -77.2547   27.2374  -70.6862 C.ar      11 UNK        -0.0830 
     12 C12       -76.3922   28.3295  -70.8477 C.ar      11 UNK        -0.1021 
     13 C13       -76.8690   29.6377  -70.7279 C.ar      11 UNK        -0.0753 
     14 C14       -78.2179   29.8584  -70.4394 C.ar      11 UNK        -0.0933 
     15 C15       -75.9204   30.8110  -70.9055 C.3       11 UNK         0.0166 
     16 S16       -75.8343   31.3104  -72.6498 S.3       11 UNK        -0.2615 
     17 C17       -74.4350   32.4864  -72.6153 C.3       11 UNK        -0.0865 
     18 CA        -73.0911   31.8740  -73.0989 C.3       10 UNK         0.0862 
     19 C         -72.4084   31.0036  -72.0002 C.2       10 UNK         0.5551 
     20 N         -72.1167   29.7281  -72.2273 N.am      10 UNK        -0.7319 
     21 O         -72.1285   31.5059  -70.9145 O.2       10 UNK        -0.5018 
     22 N         -73.2465   31.2213  -74.4060 N.am      10 UNK        -0.4509 
     23 C         -72.2595   30.9639  -75.2674 C.2       10 UNK         0.4899 
     24 O         -71.0958   31.3474  -75.1316 O.2       10 UNK        -0.4839 
     25 CA        -72.6493   30.1200  -76.4914 C.3       9 UNK         0.0222 
     26 CB        -72.5615   30.9511  -77.7815 C.3       9 UNK        -0.1966 
     27 N         -71.8169   28.9242  -76.6256 N.am      9 UNK        -0.4218 
     28 C         -71.6599   27.9625  -75.7059 C.2       9 UNK         0.5020 
     29 O         -72.2050   27.9756  -74.5997 O.2       9 UNK        -0.5274 
     30 CA        -70.7559   26.7801  -76.1108 C.3       8 UNK         0.0270 
     31 CB        -70.5746   25.7602  -74.9707 C.3       8 UNK        -0.1976 
     32 N         -71.2799   26.0800  -77.2852 N.am      8 UNK        -0.4313 
     33 C         -71.2426   26.5050  -78.5532 C.2       8 UNK         0.5041 
     34 O         -70.6791   27.5446  -78.9001 O.2       8 UNK        -0.5577 
     35 CA        -71.9977   25.6682  -79.6046 C.3       7 UNK         0.0284 
     36 CB        -71.1631   24.4545  -80.0595 C.3       7 UNK        -0.1958 
     37 N         -73.3597   25.2798  -79.1977 N.am      7 UNK        -0.4454 
     38 C         -73.7309   24.4555  -78.2087 C.2       7 UNK         0.5089 
     39 O         -72.9407   23.8222  -77.5034 O.2       7 UNK        -0.5125 
     40 CA        -75.2409   24.3360  -77.9443 C.3       6 UNK         0.0408 
     41 CB        -75.8183   23.1044  -78.6583 C.3       6 UNK        -0.1791 
     42 N         -75.5107   24.2344  -76.5088 N.am      6 UNK        -0.4762 
     43 C         -75.2994   25.2179  -75.6207 C.2       6 UNK         0.5007 
     44 O         -74.9843   26.3641  -75.9438 O.2       6 UNK        -0.5032 
     45 CA        -75.5203   24.8516  -74.1409 C.3       5 UNK         0.0783 
     46 C46       -75.2119   26.0235  -73.1736 C.3       11 UNK        -0.0857 
     47 S47       -75.1038   25.4898  -71.4324 S.3       11 UNK        -0.2512 
     48 C48       -76.8002   25.7805  -70.8138 C.3       11 UNK         0.0225 
     49 N         -76.9026   24.3941  -74.0178 N.am      5 UNK        -0.4615 
     50 C         -77.2961   23.1299  -73.8323 C.2       4 UNK         0.5053 
     51 O         -76.5267   22.1873  -73.6482 O.2       4 UNK        -0.5105 
     52 CA        -78.8078   22.8735  -73.9204 C.3       4 UNK         0.0263 
     53 CB        -79.5060   23.2136  -72.5933 C.3       4 UNK        -0.1981 
     54 N         -79.4097   23.6596  -74.9972 N.am      4 UNK        -0.4224 
     55 C         -79.3867   23.3309  -76.2955 C.2       3 UNK         0.4895 
     56 O         -78.9113   22.2784  -76.7247 O.2       3 UNK        -0.5091 
     57 CA        -79.9969   24.3630  -77.2683 C.3       3 UNK         0.0250 
     58 CB        -80.2863   23.7788  -78.6675 C.3       3 UNK        -0.1996 
     59 N         -81.1858   25.0311  -76.7179 N.am      3 UNK        -0.4254 
     60 C         -82.3350   24.4579  -76.3241 C.2       2 UNK         0.5004 
     61 O         -82.5917   23.2607  -76.4627 O.2       2 UNK        -0.5226 
     62 CA        -83.3332   25.3784  -75.5933 C.3       2 UNK         0.0269 
     63 CB        -84.6090   24.6400  -75.1451 C.3       2 UNK        -0.1926 
     64 N         -82.6944   25.9771  -74.4169 N.am      2 UNK        -0.4687 
     65 C         -81.9649   27.0992  -74.4385 C.2       1 UNK         0.5165 
     66 O         -81.8613   27.8169  -75.4371 O.2       1 UNK        -0.5079 
     67 H67       -78.1566   29.4762  -74.8951 H         1 UNK         0.0900 
     68 H68       -77.1237   28.0833  -75.2172 H         1 UNK         0.0900 
     69 H69       -77.1790   28.7857  -73.5974 H         1 UNK         0.0900 
     70 H70       -79.9415   29.1401  -73.2463 H         1 UNK         0.2959 
     71 H71       -80.9233   26.4987  -72.6788 H         1 UNK         0.1079 
     72 H72       -81.9616   29.3352  -72.3030 H         1 UNK         0.0837 
     73 H73       -83.1422   28.0639  -72.3182 H         1 UNK         0.0837 
     74 H74       -80.8599   30.0431  -70.2690 H         1 UNK         0.0685 
     75 H75       -80.6024   29.1442  -68.7965 H         1 UNK         0.0685 
     76 H76       -79.2592   26.6377  -70.2252 H         1 UNK         0.1434 
     77 H77       -75.3463   28.1769  -71.0730 H         1 UNK         0.1329 
     78 H78       -78.5822   30.8721  -70.3424 H         1 UNK         0.1335 
     79 H79       -76.2445   31.6590  -70.3002 H         1 UNK         0.0680 
     80 H80       -74.9270   30.5373  -70.5480 H         1 UNK         0.0680 
     81 H81       -74.3366   32.9270  -71.6210 H         1 UNK         0.1032 
     82 H82       -74.6983   33.3194  -73.2688 H         1 UNK         0.1032 
     83 H83       -72.4083   32.7125  -73.2493 H         1 UNK         0.0461 
     84 H84       -72.3112   29.2881  -73.1213 H         1 UNK         0.3453 
     85 H85       -71.6723   29.1928  -71.4996 H         1 UNK         0.3453 
     86 H86       -74.1662   30.8443  -74.5852 H         1 UNK         0.2984 
     87 H87       -73.6807   29.7798  -76.3753 H         1 UNK         0.0554 
     88 H88       -72.8962   30.3792  -78.6472 H         1 UNK         0.0847 
     89 H89       -71.5421   31.2878  -77.9754 H         1 UNK         0.0847 
     90 H90       -73.1914   31.8394  -77.7172 H         1 UNK         0.0847 
     91 H91       -71.3369   28.7911  -77.5111 H         1 UNK         0.3141 
     92 H92       -69.7736   27.1890  -76.3566 H         1 UNK         0.0743 
     93 H93       -71.5237   25.3051  -74.6834 H         1 UNK         0.0784 
     94 H94       -69.8922   24.9602  -75.2583 H         1 UNK         0.0784 
     95 H95       -70.1583   26.2369  -74.0822 H         1 UNK         0.0784 
     96 H96       -71.8015   25.2227  -77.1127 H         1 UNK         0.3213 
     97 H97       -72.1270   26.3134  -80.4755 H         1 UNK         0.0855 
     98 H98       -70.2009   24.7759  -80.4605 H         1 UNK         0.0814 
     99 H99       -71.6712   23.8967  -80.8461 H         1 UNK         0.0814 
    100 H100      -70.9552   23.7654  -79.2407 H         1 UNK         0.0814 
    101 H101      -74.0971   25.7632  -79.6931 H         1 UNK         0.3105 
    102 H102      -75.7440   25.2281  -78.3234 H         1 UNK         0.0547 
    103 H103      -75.6513   23.1620  -79.7347 H         1 UNK         0.0837 
    104 H104      -75.3574   22.1804  -78.3066 H         1 UNK         0.0837 
    105 H105      -76.8938   23.0224  -78.5032 H         1 UNK         0.0837 
    106 H106      -75.7645   23.3204  -76.1612 H         1 UNK         0.3020 
    107 H107      -74.8239   24.0398  -73.9181 H         1 UNK         0.1245 
    108 H108      -75.9514   26.8156  -73.2729 H         1 UNK         0.0781 
    109 H109      -74.2496   26.4779  -73.4180 H         1 UNK         0.0781 
    110 H110      -76.8792   25.3142  -69.8309 H         1 UNK         0.0836 
    111 H111      -77.4968   25.2470  -71.4587 H         1 UNK         0.0836 
    112 H112      -77.6127   25.1037  -74.1906 H         1 UNK         0.3022 
    113 H113      -78.9592   21.8112  -74.1248 H         1 UNK         0.0747 
    114 H114      -80.5570   22.9252  -72.6182 H         1 UNK         0.0793 
    115 H115      -79.0440   22.6824  -71.7600 H         1 UNK         0.0793 
    116 H116      -79.4600   24.2799  -72.3707 H         1 UNK         0.0793 
    117 H117      -79.7159   24.5950  -74.7551 H         1 UNK         0.3047 
    118 H118      -79.2400   25.1402  -77.3875 H         1 UNK         0.0822 
    119 H119      -80.6993   24.5345  -79.3354 H         1 UNK         0.0807 
    120 H120      -80.9919   22.9487  -78.6222 H         1 UNK         0.0807 
    121 H121      -79.3737   23.4027  -79.1312 H         1 UNK         0.0807 
    122 H122      -81.0845   26.0235  -76.5383 H         1 UNK         0.2946 
    123 H123      -83.6309   26.1599  -76.2968 H         1 UNK         0.1144 
    124 H124      -85.1261   24.2004  -75.9992 H         1 UNK         0.0793 
    125 H125      -85.3097   25.3195  -74.6596 H         1 UNK         0.0793 
    126 H126      -84.3866   23.8322  -74.4467 H         1 UNK         0.0793 
    127 H127      -82.7313   25.4325  -73.5664 H         1 UNK         0.2896 
@<TRIPOS>BOND
     1    1    2 1    
     2    1   67 1    
     3    1   68 1    
     4    1   69 1    
     5    2    3 2    
     6    2    4 am   BACKBONE|DICT|INTERRES
     7    4    5 1    
     8    4   70 1    
     9    5    6 1    
    10    5   65 1    
    11    5   71 1    
    12    6    7 1    
    13    6   72 1    
    14    6   73 1    
    15    7    8 1    
    16    8    9 1    
    17    8   74 1    
    18    8   75 1    
    19    9   10 ar   
    20    9   14 ar   
    21   10   11 ar   
    22   10   76 1    
    23   11   12 ar   
    24   11   48 1    
    25   12   13 ar   
    26   12   77 1    
    27   13   14 ar   
    28   13   15 1    
    29   14   78 1    
    30   15   16 1    
    31   15   79 1    
    32   15   80 1    
    33   16   17 1    
    34   17   18 1    
    35   17   81 1    
    36   17   82 1    
    37   18   19 1    
    38   18   22 1    
    39   18   83 1    
    40   19   20 am   BACKBONE|DICT|INTERRES
    41   19   21 2    
    42   20   84 1    
    43   20   85 1    
    44   22   23 am   BACKBONE|DICT|INTERRES
    45   22   86 1    
    46   23   24 2    
    47   23   25 1    
    48   25   26 1    
    49   25   27 1    
    50   25   87 1    
    51   26   88 1    
    52   26   89 1    
    53   26   90 1    
    54   27   28 am   BACKBONE|DICT|INTERRES
    55   27   91 1    
    56   28   29 2    
    57   28   30 1    
    58   30   31 1    
    59   30   32 1    
    60   30   92 1    
    61   31   93 1    
    62   31   94 1    
    63   31   95 1    
    64   32   33 am   BACKBONE|DICT|INTERRES
    65   32   96 1    
    66   33   34 2    
    67   33   35 1    
    68   35   36 1    
    69   35   37 1    
    70   35   97 1    
    71   36   98 1    
    72   36   99 1    
    73   36  100 1    
    74   37   38 am   BACKBONE|DICT|INTERRES
    75   37  101 1    
    76   38   39 2    
    77   38   40 1    
    78   40   41 1    
    79   40   42 1    
    80   40  102 1    
    81   41  103 1    
    82   41  104 1    
    83   41  105 1    
    84   42   43 am   BACKBONE|DICT|INTERRES
    85   42  106 1    
    86   43   44 2    
    87   43   45 1    
    88   45   46 1    
    89   45   49 1    
    90   45  107 1    
    91   46   47 1    
    92   46  108 1    
    93   46  109 1    
    94   47   48 1    
    95   48  110 1    
    96   48  111 1    
    97   49   50 am   BACKBONE|DICT|INTERRES
    98   49  112 1    
    99   50   51 2    
   100   50   52 1    
   101   52   53 1    
   102   52   54 1    
   103   52  113 1    
   104   53  114 1    
   105   53  115 1    
   106   53  116 1    
   107   54   55 am   BACKBONE|DICT|INTERRES
   108   54  117 1    
   109   55   56 2    
   110   55   57 1    
   111   57   58 1    
   112   57   59 1    
   113   57  118 1    
   114   58  119 1    
   115   58  120 1    
   116   58  121 1    
   117   59   60 am   BACKBONE|DICT|INTERRES
   118   59  122 1    
   119   60   61 2    
   120   60   62 1    
   121   62   63 1    
   122   62   64 1    
   123   62  123 1    
   124   63  124 1    
   125   63  125 1    
   126   63  126 1    
   127   64   65 am   BACKBONE|DICT|INTERRES
   128   64  127 1    
   129   65   66 2    
@<TRIPOS>SUBSTRUCTURE
     1 UNK         1 GROUP             0       ****    0 ROOT    
