@<TRIPOS>MOLECULE
3R135
127   129    1
SMALL
USER_CHARGES


@<TRIPOS>ATOM
      1 CA        -80.7775   30.0003  -75.4095 C.3       0 UNK        -0.1998 
      2 C         -81.4818   29.0750  -74.4286 C.2       0 UNK         0.4909 
      3 O         -82.6843   28.8469  -74.5623 O.2       0 UNK        -0.5240 
      4 N         -80.7316   28.5413  -73.4541 N.am      1 UNK        -0.4739 
      5 CA        -81.1772   27.6159  -72.3985 C.3       1 UNK         0.0864 
      6 C6        -82.1372   28.2534  -71.3532 C.3       11 UNK        -0.0881 
      7 S7        -81.6445   29.9147  -70.7556 S.3       11 UNK        -0.2682 
      8 C8        -80.1381   29.6076  -69.7662 C.3       11 UNK         0.0289 
      9 C9        -78.9126   29.2911  -70.6193 C.ar      11 UNK        -0.0687 
     10 C10       -78.1309   28.1674  -70.3287 C.ar      11 UNK        -0.0823 
     11 C11       -77.0446   27.8277  -71.1407 C.ar      11 UNK        -0.0830 
     12 C12       -76.7429   28.6210  -72.2502 C.ar      11 UNK        -0.1021 
     13 C13       -77.4951   29.7620  -72.5365 C.ar      11 UNK        -0.0753 
     14 C14       -78.5659   30.1045  -71.7059 C.ar      11 UNK        -0.0933 
     15 C15       -77.1661   30.5920  -73.7673 C.3       11 UNK         0.0166 
     16 S16       -75.5930   31.4888  -73.5717 S.3       11 UNK        -0.2615 
     17 C17       -74.8991   31.4165  -75.2662 C.3       11 UNK        -0.0865 
     18 CA        -73.3839   31.0729  -75.3192 C.3       10 UNK         0.0862 
     19 C         -72.4959   32.3089  -74.9963 C.2       10 UNK         0.5551 
     20 N         -72.3401   33.2199  -75.9477 N.am      10 UNK        -0.7319 
     21 O         -71.9723   32.4659  -73.8942 O.2       10 UNK        -0.5018 
     22 N         -73.0608   29.9001  -74.4945 N.am      10 UNK        -0.4509 
     23 C         -71.9202   29.2026  -74.5602 C.2       10 UNK         0.4899 
     24 O         -71.0564   29.3794  -75.4205 O.2       10 UNK        -0.4839 
     25 CA        -71.6835   28.1409  -73.4750 C.3       9 UNK         0.0222 
     26 CB        -72.5636   28.3171  -72.2197 C.3       9 UNK        -0.1966 
     27 N         -71.9177   26.8168  -74.0437 N.am      9 UNK        -0.4218 
     28 C         -70.9667   25.9339  -74.3719 C.2       9 UNK         0.5020 
     29 O         -69.7594   26.1248  -74.2150 O.2       9 UNK        -0.5274 
     30 CA        -71.4426   24.5946  -74.9590 C.3       8 UNK         0.0270 
     31 CB        -71.9897   23.6804  -73.8499 C.3       8 UNK        -0.1976 
     32 N         -72.4505   24.7542  -76.0099 N.am      8 UNK        -0.4313 
     33 C         -72.2030   25.2528  -77.2300 C.2       8 UNK         0.5041 
     34 O         -71.0869   25.6058  -77.6134 O.2       8 UNK        -0.5577 
     35 CA        -73.3971   25.3718  -78.1933 C.3       7 UNK         0.0284 
     36 CB        -73.7007   24.0188  -78.8567 C.3       7 UNK        -0.1958 
     37 N         -74.5993   25.8846  -77.5339 N.am      7 UNK        -0.4454 
     38 C         -74.7374   27.1450  -77.0980 C.2       7 UNK         0.5089 
     39 O         -73.9130   28.0349  -77.3023 O.2       7 UNK        -0.5125 
     40 CA        -75.9952   27.4695  -76.2745 C.3       6 UNK         0.0408 
     41 CB        -77.1460   27.9270  -77.1830 C.3       6 UNK        -0.1791 
     42 N         -76.4484   26.3539  -75.4442 N.am      6 UNK        -0.4762 
     43 C         -75.7581   25.8325  -74.4207 C.2       6 UNK         0.5007 
     44 O         -74.6587   26.2454  -74.0549 O.2       6 UNK        -0.5032 
     45 CA        -76.3910   24.6180  -73.7197 C.3       5 UNK         0.0783 
     46 C46       -77.5466   25.0490  -72.7738 C.3       11 UNK        -0.0857 
     47 S47       -77.0775   25.0365  -71.0134 S.3       11 UNK        -0.2512 
     48 C48       -76.1864   26.6132  -70.8144 C.3       11 UNK         0.0225 
     49 N         -76.8181   23.6169  -74.7016 N.am      5 UNK        -0.4615 
     50 C         -75.9913   22.9284  -75.5009 C.2       4 UNK         0.5053 
     51 O         -74.7669   23.0444  -75.4811 O.2       4 UNK        -0.5105 
     52 CA        -76.6423   21.9762  -76.5177 C.3       4 UNK         0.0263 
     53 CB        -76.9005   20.6022  -75.8801 C.3       4 UNK        -0.1981 
     54 N         -77.8926   22.5055  -77.0682 N.am      4 UNK        -0.4224 
     55 C         -77.9717   23.5832  -77.8623 C.2       3 UNK         0.4895 
     56 O         -76.9949   24.2232  -78.2516 O.2       3 UNK        -0.5091 
     57 CA        -79.3879   24.0608  -78.2295 C.3       3 UNK         0.0250 
     58 CB        -79.9702   23.2152  -79.3735 C.3       3 UNK        -0.1996 
     59 N         -80.3157   24.0657  -77.0894 N.am      3 UNK        -0.4254 
     60 C         -80.1222   24.7776  -75.9713 C.2       2 UNK         0.5004 
     61 O         -79.1237   25.4799  -75.7761 O.2       2 UNK        -0.5226 
     62 CA        -81.1895   24.6775  -74.8729 C.3       2 UNK         0.0269 
     63 CB        -81.1190   23.3252  -74.1374 C.3       2 UNK        -0.1926 
     64 N         -80.9234   25.7850  -73.9648 N.am      2 UNK        -0.4687 
     65 C         -81.6973   26.2918  -73.0016 C.2       1 UNK         0.5165 
     66 O         -82.7601   25.7909  -72.6297 O.2       1 UNK        -0.5079 
     67 H67       -79.6949   29.9661  -75.2964 H         1 UNK         0.0900 
     68 H68       -81.0158   29.7137  -76.4335 H         1 UNK         0.0900 
     69 H69       -81.1058   31.0279  -75.2570 H         1 UNK         0.0900 
     70 H70       -79.7579   28.8039  -73.3906 H         1 UNK         0.2959 
     71 H71       -80.2767   27.3208  -71.8619 H         1 UNK         0.1079 
     72 H72       -82.2487   27.5930  -70.4914 H         1 UNK         0.0837 
     73 H73       -83.1355   28.3561  -71.7827 H         1 UNK         0.0837 
     74 H74       -79.9238   30.4979  -69.1739 H         1 UNK         0.0685 
     75 H75       -80.3408   28.8052  -69.0552 H         1 UNK         0.0685 
     76 H76       -78.3756   27.5424  -69.4805 H         1 UNK         0.1434 
     77 H77       -75.9152   28.3602  -72.8936 H         1 UNK         0.1329 
     78 H78       -79.1588   30.9817  -71.9269 H         1 UNK         0.1335 
     79 H79       -77.1321   29.9250  -74.6278 H         1 UNK         0.0680 
     80 H80       -77.9564   31.3154  -73.9735 H         1 UNK         0.0680 
     81 H81       -75.4363   30.6710  -75.8519 H         1 UNK         0.1032 
     82 H82       -75.1047   32.3646  -75.7668 H         1 UNK         0.1032 
     83 H83       -73.1570   30.7937  -76.3505 H         1 UNK         0.0461 
     84 H84       -72.7625   33.1056  -76.8560 H         1 UNK         0.3453 
     85 H85       -71.7775   34.0345  -75.7573 H         1 UNK         0.3453 
     86 H86       -73.6966   29.7248  -73.7314 H         1 UNK         0.2984 
     87 H87       -70.6436   28.2416  -73.1577 H         1 UNK         0.0554 
     88 H88       -72.2861   27.5991  -71.4479 H         1 UNK         0.0847 
     89 H89       -73.6218   28.1717  -72.4316 H         1 UNK         0.0847 
     90 H90       -72.4419   29.3119  -71.7884 H         1 UNK         0.0847 
     91 H91       -72.8935   26.5675  -74.2031 H         1 UNK         0.3141 
     92 H92       -70.5747   24.1008  -75.4013 H         1 UNK         0.0743 
     93 H93       -72.8893   24.0929  -73.3915 H         1 UNK         0.0784 
     94 H94       -72.2373   22.6923  -74.2385 H         1 UNK         0.0784 
     95 H95       -71.2525   23.5417  -73.0580 H         1 UNK         0.0784 
     96 H96       -73.3853   24.4162  -75.7985 H         1 UNK         0.3213 
     97 H97       -73.1188   26.0767  -78.9799 H         1 UNK         0.0855 
     98 H98       -74.0007   23.2670  -78.1267 H         1 UNK         0.0814 
     99 H99       -72.8228   23.6351  -79.3780 H         1 UNK         0.0814 
    100 H100      -74.5007   24.1087  -79.5918 H         1 UNK         0.0814 
    101 H101      -75.3697   25.2373  -77.4046 H         1 UNK         0.3105 
    102 H102      -75.7371   28.2900  -75.6037 H         1 UNK         0.0547 
    103 H103      -76.8477   28.7806  -77.7929 H         1 UNK         0.0837 
    104 H104      -77.4612   27.1325  -77.8608 H         1 UNK         0.0837 
    105 H105      -78.0155   28.2305  -76.5998 H         1 UNK         0.0837 
    106 H106      -77.3623   25.9604  -75.6657 H         1 UNK         0.3020 
    107 H107      -75.6008   24.1487  -73.1286 H         1 UNK         0.1245 
    108 H108      -78.3779   24.3496  -72.8527 H         1 UNK         0.0781 
    109 H109      -77.9766   26.0168  -73.0384 H         1 UNK         0.0781 
    110 H110      -75.2849   26.5935  -71.4275 H         1 UNK         0.0836 
    111 H111      -75.8428   26.6914  -69.7820 H         1 UNK         0.0836 
    112 H112      -77.8117   23.5040  -74.8279 H         1 UNK         0.3022 
    113 H113      -75.9400   21.8427  -77.3433 H         1 UNK         0.0747 
    114 H114      -77.2887   19.8924  -76.6110 H         1 UNK         0.0793 
    115 H115      -75.9776   20.1796  -75.4800 H         1 UNK         0.0793 
    116 H116      -77.6144   20.6629  -75.0576 H         1 UNK         0.0793 
    117 H117      -78.7478   22.0401  -76.8012 H         1 UNK         0.3047 
    118 H118      -79.2986   25.0909  -78.5816 H         1 UNK         0.0822 
    119 H119      -80.9257   23.6140  -79.7145 H         1 UNK         0.0807 
    120 H120      -80.1265   22.1779  -79.0748 H         1 UNK         0.0807 
    121 H121      -79.2993   23.2090  -80.2339 H         1 UNK         0.0807 
    122 H122      -81.1542   23.5098  -77.1809 H         1 UNK         0.2946 
    123 H123      -82.1764   24.8156  -75.3198 H         1 UNK         0.1144 
    124 H124      -81.8466   23.2727  -73.3276 H         1 UNK         0.0793 
    125 H125      -80.1342   23.1406  -73.7105 H         1 UNK         0.0793 
    126 H126      -81.3388   22.4993  -74.8149 H         1 UNK         0.0793 
    127 H127      -80.0866   26.2927  -74.2292 H         1 UNK         0.2896 
@<TRIPOS>BOND
     1    1    2 1    
     2    1   67 1    
     3    1   68 1    
     4    1   69 1    
     5    2    3 2    
     6    2    4 am   BACKBONE|DICT|INTERRES
     7    4    5 1    
     8    4   70 1    
     9    5    6 1    
    10    5   65 1    
    11    5   71 1    
    12    6    7 1    
    13    6   72 1    
    14    6   73 1    
    15    7    8 1    
    16    8    9 1    
    17    8   74 1    
    18    8   75 1    
    19    9   10 ar   
    20    9   14 ar   
    21   10   11 ar   
    22   10   76 1    
    23   11   12 ar   
    24   11   48 1    
    25   12   13 ar   
    26   12   77 1    
    27   13   14 ar   
    28   13   15 1    
    29   14   78 1    
    30   15   16 1    
    31   15   79 1    
    32   15   80 1    
    33   16   17 1    
    34   17   18 1    
    35   17   81 1    
    36   17   82 1    
    37   18   19 1    
    38   18   22 1    
    39   18   83 1    
    40   19   20 am   BACKBONE|DICT|INTERRES
    41   19   21 2    
    42   20   84 1    
    43   20   85 1    
    44   22   23 am   BACKBONE|DICT|INTERRES
    45   22   86 1    
    46   23   24 2    
    47   23   25 1    
    48   25   26 1    
    49   25   27 1    
    50   25   87 1    
    51   26   88 1    
    52   26   89 1    
    53   26   90 1    
    54   27   28 am   BACKBONE|DICT|INTERRES
    55   27   91 1    
    56   28   29 2    
    57   28   30 1    
    58   30   31 1    
    59   30   32 1    
    60   30   92 1    
    61   31   93 1    
    62   31   94 1    
    63   31   95 1    
    64   32   33 am   BACKBONE|DICT|INTERRES
    65   32   96 1    
    66   33   34 2    
    67   33   35 1    
    68   35   36 1    
    69   35   37 1    
    70   35   97 1    
    71   36   98 1    
    72   36   99 1    
    73   36  100 1    
    74   37   38 am   BACKBONE|DICT|INTERRES
    75   37  101 1    
    76   38   39 2    
    77   38   40 1    
    78   40   41 1    
    79   40   42 1    
    80   40  102 1    
    81   41  103 1    
    82   41  104 1    
    83   41  105 1    
    84   42   43 am   BACKBONE|DICT|INTERRES
    85   42  106 1    
    86   43   44 2    
    87   43   45 1    
    88   45   46 1    
    89   45   49 1    
    90   45  107 1    
    91   46   47 1    
    92   46  108 1    
    93   46  109 1    
    94   47   48 1    
    95   48  110 1    
    96   48  111 1    
    97   49   50 am   BACKBONE|DICT|INTERRES
    98   49  112 1    
    99   50   51 2    
   100   50   52 1    
   101   52   53 1    
   102   52   54 1    
   103   52  113 1    
   104   53  114 1    
   105   53  115 1    
   106   53  116 1    
   107   54   55 am   BACKBONE|DICT|INTERRES
   108   54  117 1    
   109   55   56 2    
   110   55   57 1    
   111   57   58 1    
   112   57   59 1    
   113   57  118 1    
   114   58  119 1    
   115   58  120 1    
   116   58  121 1    
   117   59   60 am   BACKBONE|DICT|INTERRES
   118   59  122 1    
   119   60   61 2    
   120   60   62 1    
   121   62   63 1    
   122   62   64 1    
   123   62  123 1    
   124   63  124 1    
   125   63  125 1    
   126   63  126 1    
   127   64   65 am   BACKBONE|DICT|INTERRES
   128   64  127 1    
   129   65   66 2    
@<TRIPOS>SUBSTRUCTURE
     1 UNK         1 GROUP             0       ****    0 ROOT    
