@<TRIPOS>MOLECULE
3R135
127   129    1
SMALL
USER_CHARGES


@<TRIPOS>ATOM
      1 CA        -82.7920   27.1020  -70.5864 C.3       0 UNK        -0.1998 
      2 C         -83.1397   27.6827  -71.9491 C.2       0 UNK         0.4909 
      3 O         -84.1774   28.3289  -72.0962 O.2       0 UNK        -0.5240 
      4 N         -82.2780   27.4594  -72.9442 N.am      1 UNK        -0.4739 
      5 CA        -82.4288   27.9063  -74.3253 C.3       1 UNK         0.0864 
      6 C6        -82.0813   29.4118  -74.5216 C.3       11 UNK        -0.0881 
      7 S7        -80.3300   29.8691  -74.2370 S.3       11 UNK        -0.2682 
      8 C8        -80.3238   30.3107  -72.4707 C.3       11 UNK         0.0289 
      9 C9        -79.0902   29.7501  -71.7789 C.ar      11 UNK        -0.0687 
     10 C10       -79.0357   28.3953  -71.4413 C.ar      11 UNK        -0.0823 
     11 C11       -77.9068   27.8592  -70.8175 C.ar      11 UNK        -0.0830 
     12 C12       -76.8221   28.6910  -70.5281 C.ar      11 UNK        -0.1021 
     13 C13       -76.8600   30.0481  -70.8642 C.ar      11 UNK        -0.0753 
     14 C14       -78.0013   30.5743  -71.4806 C.ar      11 UNK        -0.0933 
     15 C15       -75.6606   30.9389  -70.5660 C.3       11 UNK         0.0166 
     16 S16       -74.9895   31.7295  -72.0639 S.3       11 UNK        -0.2615 
     17 C17       -74.5428   30.2890  -73.0930 C.3       11 UNK        -0.0865 
     18 CA        -73.0114   30.1429  -73.2934 C.3       10 UNK         0.0862 
     19 C         -72.3575   29.3141  -72.1543 C.2       10 UNK         0.5551 
     20 N         -72.1525   28.0148  -72.3293 N.am      10 UNK        -0.7319 
     21 O         -72.0157   29.8592  -71.1080 O.2       10 UNK        -0.5018 
     22 N         -72.7243   29.6116  -74.6339 N.am      10 UNK        -0.4509 
     23 C         -71.8301   30.1265  -75.4862 C.2       10 UNK         0.4899 
     24 O         -71.0929   31.0777  -75.2199 O.2       10 UNK        -0.4839 
     25 CA        -71.7874   29.4933  -76.8882 C.3       9 UNK         0.0222 
     26 CB        -70.6279   30.0152  -77.7653 C.3       9 UNK        -0.1966 
     27 N         -71.8207   28.0284  -76.8558 N.am      9 UNK        -0.4218 
     28 C         -70.8747   27.1965  -76.3922 C.2       9 UNK         0.5020 
     29 O         -69.8117   27.5807  -75.9022 O.2       9 UNK        -0.5274 
     30 CA        -71.1364   25.6770  -76.4838 C.3       8 UNK         0.0270 
     31 CB        -70.9653   25.0076  -75.1084 C.3       8 UNK        -0.1976 
     32 N         -72.4540   25.3249  -77.0223 N.am      8 UNK        -0.4313 
     33 C         -72.8187   25.3913  -78.3101 C.2       8 UNK         0.5041 
     34 O         -72.0474   25.6796  -79.2253 O.2       8 UNK        -0.5577 
     35 CA        -74.3098   25.1596  -78.6214 C.3       7 UNK         0.0284 
     36 CB        -74.5951   23.6665  -78.8425 C.3       7 UNK        -0.1958 
     37 N         -75.2033   25.6888  -77.5830 N.am      7 UNK        -0.4454 
     38 C         -75.2985   26.9846  -77.2469 C.2       7 UNK         0.5089 
     39 O         -74.6702   27.8829  -77.8058 O.2       7 UNK        -0.5125 
     40 CA        -76.1894   27.3326  -76.0438 C.3       6 UNK         0.0408 
     41 CB        -77.6629   27.4525  -76.4566 C.3       6 UNK        -0.1791 
     42 N         -76.0478   26.3576  -74.9619 N.am      6 UNK        -0.4762 
     43 C         -74.9489   26.2345  -74.2054 C.2       6 UNK         0.5007 
     44 O         -73.9614   26.9638  -74.3194 O.2       6 UNK        -0.5032 
     45 CA        -74.9215   25.0739  -73.1899 C.3       5 UNK         0.0783 
     46 C46       -75.6030   25.4502  -71.8500 C.3       11 UNK        -0.0857 
     47 S47       -77.4286   25.3525  -71.8865 S.3       11 UNK        -0.2512 
     48 C48       -77.8733   26.3826  -70.4550 C.3       11 UNK         0.0225 
     49 N         -75.4437   23.8231  -73.7509 N.am      5 UNK        -0.4615 
     50 C         -74.8803   23.1412  -74.7555 C.2       4 UNK         0.5053 
     51 O         -73.8275   23.4737  -75.2952 O.2       4 UNK        -0.5105 
     52 CA        -75.6322   21.9020  -75.2748 C.3       4 UNK         0.0263 
     53 CB        -75.2336   20.6580  -74.4655 C.3       4 UNK        -0.1981 
     54 N         -77.0942   22.0360  -75.2796 N.am      4 UNK        -0.4224 
     55 C         -77.7801   23.0058  -75.9005 C.2       3 UNK         0.4895 
     56 O         -77.2467   23.9275  -76.5278 O.2       3 UNK        -0.5091 
     57 CA        -79.3106   22.9529  -75.7792 C.3       3 UNK         0.0250 
     58 CB        -79.7529   23.0134  -74.2998 C.3       3 UNK        -0.1996 
     59 N         -79.8460   24.0950  -76.5122 N.am      3 UNK        -0.4254 
     60 C         -81.1252   24.3685  -76.7813 C.2       2 UNK         0.5004 
     61 O         -82.0667   23.6088  -76.5427 O.2       2 UNK        -0.5226 
     62 CA        -81.3991   25.7631  -77.3788 C.3       2 UNK         0.0269 
     63 CB        -82.2707   25.6665  -78.6429 C.3       2 UNK        -0.1926 
     64 N         -82.0417   26.6673  -76.4154 N.am      2 UNK        -0.4687 
     65 C         -81.5787   26.9597  -75.1898 C.2       1 UNK         0.5165 
     66 O         -80.5261   26.5144  -74.7240 O.2       1 UNK        -0.5079 
     67 H67       -82.6146   27.9051  -69.8716 H         1 UNK         0.0900 
     68 H68       -83.6155   26.4916  -70.2169 H         1 UNK         0.0900 
     69 H69       -81.8997   26.4773  -70.6245 H         1 UNK         0.0900 
     70 H70       -81.4544   26.8854  -72.8096 H         1 UNK         0.2959 
     71 H71       -83.4733   27.7555  -74.6080 H         1 UNK         0.1079 
     72 H72       -82.3295   29.7062  -75.5426 H         1 UNK         0.0837 
     73 H73       -82.7193   30.0283  -73.8866 H         1 UNK         0.0837 
     74 H74       -80.3629   31.3968  -72.3755 H         1 UNK         0.0685 
     75 H75       -81.2167   29.9300  -71.9752 H         1 UNK         0.0685 
     76 H76       -79.8681   27.7509  -71.6787 H         1 UNK         0.1434 
     77 H77       -75.9452   28.2804  -70.0465 H         1 UNK         0.1329 
     78 H78       -78.0312   31.6227  -71.7444 H         1 UNK         0.1335 
     79 H79       -74.8625   30.3736  -70.0817 H         1 UNK         0.0680 
     80 H80       -75.9613   31.7150  -69.8611 H         1 UNK         0.0680 
     81 H81       -74.9840   29.3674  -72.7091 H         1 UNK         0.1032 
     82 H82       -75.0330   30.4527  -74.0542 H         1 UNK         0.1032 
     83 H83       -72.5756   31.1417  -73.2256 H         1 UNK         0.0461 
     84 H84       -72.5071   27.5597  -73.1617 H         1 UNK         0.3453 
     85 H85       -71.7110   27.4787  -71.6001 H         1 UNK         0.3453 
     86 H86       -73.2299   28.7703  -74.8895 H         1 UNK         0.2984 
     87 H87       -72.7145   29.7973  -77.3758 H         1 UNK         0.0554 
     88 H88       -70.7024   31.0940  -77.9068 H         1 UNK         0.0847 
     89 H89       -70.6420   29.5583  -78.7547 H         1 UNK         0.0847 
     90 H90       -69.6543   29.8161  -77.3167 H         1 UNK         0.0847 
     91 H91       -72.6730   27.6199  -77.2232 H         1 UNK         0.3141 
     92 H92       -70.3773   25.2674  -77.1532 H         1 UNK         0.0743 
     93 H93       -69.9732   25.1964  -74.6964 H         1 UNK         0.0784 
     94 H94       -71.6938   25.3786  -74.3875 H         1 UNK         0.0784 
     95 H95       -71.0828   23.9259  -75.1769 H         1 UNK         0.0784 
     96 H96       -73.1338   24.9802  -76.3498 H         1 UNK         0.3213 
     97 H97       -74.5389   25.6900  -79.5481 H         1 UNK         0.0855 
     98 H98       -74.3300   23.0728  -77.9686 H         1 UNK         0.0814 
     99 H99       -74.0158   23.2817  -79.6827 H         1 UNK         0.0814 
    100 H100      -75.6478   23.4889  -79.0640 H         1 UNK         0.0814 
    101 H101      -75.7937   25.0198  -77.0935 H         1 UNK         0.3105 
    102 H102      -75.8712   28.3061  -75.6640 H         1 UNK         0.0547 
    103 H103      -78.2832   27.7600  -75.6143 H         1 UNK         0.0837 
    104 H104      -77.7888   28.2010  -77.2398 H         1 UNK         0.0837 
    105 H105      -78.0553   26.5113  -76.8382 H         1 UNK         0.0837 
    106 H106      -76.8034   25.6995  -74.8304 H         1 UNK         0.3020 
    107 H107      -73.8650   24.9008  -72.9714 H         1 UNK         0.1245 
    108 H108      -75.2902   26.4449  -71.5280 H         1 UNK         0.0781 
    109 H109      -75.2586   24.7694  -71.0700 H         1 UNK         0.0781 
    110 H110      -77.1799   26.1975  -69.6330 H         1 UNK         0.0836 
    111 H111      -78.8563   26.0753  -70.0949 H         1 UNK         0.0836 
    112 H112      -76.3186   23.4975  -73.3665 H         1 UNK         0.3022 
    113 H113      -75.3223   21.7432  -76.3087 H         1 UNK         0.0747 
    114 H114      -75.6682   19.7520  -74.8885 H         1 UNK         0.0793 
    115 H115      -74.1507   20.5241  -74.4643 H         1 UNK         0.0793 
    116 H116      -75.5538   20.7316  -73.4254 H         1 UNK         0.0793 
    117 H117      -77.6102   21.3200  -74.7887 H         1 UNK         0.3047 
    118 H118      -79.6667   22.0314  -76.2435 H         1 UNK         0.0822 
    119 H119      -79.3550   22.1793  -73.7217 H         1 UNK         0.0807 
    120 H120      -80.8375   22.9703  -74.2032 H         1 UNK         0.0807 
    121 H121      -79.4184   23.9352  -73.8217 H         1 UNK         0.0807 
    122 H122      -79.1247   24.7551  -76.7741 H         1 UNK         0.2946 
    123 H123      -80.4470   26.2150  -77.6644 H         1 UNK         0.1144 
    124 H124      -82.3926   26.6402  -79.1180 H         1 UNK         0.0793 
    125 H125      -83.2639   25.2739  -78.4207 H         1 UNK         0.0793 
    126 H126      -81.8159   25.0029  -79.3797 H         1 UNK         0.0793 
    127 H127      -82.9218   27.0678  -76.7065 H         1 UNK         0.2896 
@<TRIPOS>BOND
     1    1    2 1    
     2    1   67 1    
     3    1   68 1    
     4    1   69 1    
     5    2    3 2    
     6    2    4 am   BACKBONE|DICT|INTERRES
     7    4    5 1    
     8    4   70 1    
     9    5    6 1    
    10    5   65 1    
    11    5   71 1    
    12    6    7 1    
    13    6   72 1    
    14    6   73 1    
    15    7    8 1    
    16    8    9 1    
    17    8   74 1    
    18    8   75 1    
    19    9   10 ar   
    20    9   14 ar   
    21   10   11 ar   
    22   10   76 1    
    23   11   12 ar   
    24   11   48 1    
    25   12   13 ar   
    26   12   77 1    
    27   13   14 ar   
    28   13   15 1    
    29   14   78 1    
    30   15   16 1    
    31   15   79 1    
    32   15   80 1    
    33   16   17 1    
    34   17   18 1    
    35   17   81 1    
    36   17   82 1    
    37   18   19 1    
    38   18   22 1    
    39   18   83 1    
    40   19   20 am   BACKBONE|DICT|INTERRES
    41   19   21 2    
    42   20   84 1    
    43   20   85 1    
    44   22   23 am   BACKBONE|DICT|INTERRES
    45   22   86 1    
    46   23   24 2    
    47   23   25 1    
    48   25   26 1    
    49   25   27 1    
    50   25   87 1    
    51   26   88 1    
    52   26   89 1    
    53   26   90 1    
    54   27   28 am   BACKBONE|DICT|INTERRES
    55   27   91 1    
    56   28   29 2    
    57   28   30 1    
    58   30   31 1    
    59   30   32 1    
    60   30   92 1    
    61   31   93 1    
    62   31   94 1    
    63   31   95 1    
    64   32   33 am   BACKBONE|DICT|INTERRES
    65   32   96 1    
    66   33   34 2    
    67   33   35 1    
    68   35   36 1    
    69   35   37 1    
    70   35   97 1    
    71   36   98 1    
    72   36   99 1    
    73   36  100 1    
    74   37   38 am   BACKBONE|DICT|INTERRES
    75   37  101 1    
    76   38   39 2    
    77   38   40 1    
    78   40   41 1    
    79   40   42 1    
    80   40  102 1    
    81   41  103 1    
    82   41  104 1    
    83   41  105 1    
    84   42   43 am   BACKBONE|DICT|INTERRES
    85   42  106 1    
    86   43   44 2    
    87   43   45 1    
    88   45   46 1    
    89   45   49 1    
    90   45  107 1    
    91   46   47 1    
    92   46  108 1    
    93   46  109 1    
    94   47   48 1    
    95   48  110 1    
    96   48  111 1    
    97   49   50 am   BACKBONE|DICT|INTERRES
    98   49  112 1    
    99   50   51 2    
   100   50   52 1    
   101   52   53 1    
   102   52   54 1    
   103   52  113 1    
   104   53  114 1    
   105   53  115 1    
   106   53  116 1    
   107   54   55 am   BACKBONE|DICT|INTERRES
   108   54  117 1    
   109   55   56 2    
   110   55   57 1    
   111   57   58 1    
   112   57   59 1    
   113   57  118 1    
   114   58  119 1    
   115   58  120 1    
   116   58  121 1    
   117   59   60 am   BACKBONE|DICT|INTERRES
   118   59  122 1    
   119   60   61 2    
   120   60   62 1    
   121   62   63 1    
   122   62   64 1    
   123   62  123 1    
   124   63  124 1    
   125   63  125 1    
   126   63  126 1    
   127   64   65 am   BACKBONE|DICT|INTERRES
   128   64  127 1    
   129   65   66 2    
@<TRIPOS>SUBSTRUCTURE
     1 UNK         1 GROUP             0       ****    0 ROOT    
