@<TRIPOS>MOLECULE
3R135
127   129    1
SMALL
USER_CHARGES


@<TRIPOS>ATOM
      1 CA        -85.0526   28.2262  -68.3223 C.3       0 UNK        -0.1998 
      2 C         -84.4578   28.0189  -69.7071 C.2       0 UNK         0.4909 
      3 O         -85.1967   27.9925  -70.6916 O.2       0 UNK        -0.5240 
      4 N         -83.1275   27.8790  -69.7891 N.am      1 UNK        -0.4739 
      5 CA        -82.3810   27.6298  -71.0280 C.3       1 UNK         0.0864 
      6 C6        -80.8633   27.8605  -70.8056 C.3       11 UNK        -0.0881 
      7 S7        -79.8598   27.7723  -72.3265 S.3       11 UNK        -0.2682 
      8 C8        -79.7570   29.5270  -72.7852 C.3       11 UNK         0.0289 
      9 C9        -78.8967   29.7129  -74.0247 C.ar      11 UNK        -0.0687 
     10 C10       -79.4632   29.6143  -75.2985 C.ar      11 UNK        -0.0823 
     11 C11       -78.6763   29.7880  -76.4414 C.ar      11 UNK        -0.0830 
     12 C12       -77.3132   30.0687  -76.3035 C.ar      11 UNK        -0.1021 
     13 C13       -76.7338   30.1578  -75.0335 C.ar      11 UNK        -0.0753 
     14 C14       -77.5317   29.9831  -73.8985 C.ar      11 UNK        -0.0933 
     15 C15       -75.2455   30.4413  -74.8806 C.3       11 UNK         0.0166 
     16 S16       -74.2072   29.0961  -75.5353 S.3       11 UNK        -0.2615 
     17 C17       -74.7166   27.6710  -74.5095 C.3       11 UNK        -0.0865 
     18 CA        -73.7449   27.3539  -73.3445 C.3       10 UNK         0.0862 
     19 C         -74.3486   26.2364  -72.4428 C.2       10 UNK         0.5551 
     20 N         -73.8461   25.0078  -72.4817 N.am      10 UNK        -0.7319 
     21 O         -75.2832   26.4966  -71.6902 O.2       10 UNK        -0.5018 
     22 N         -72.3833   27.0910  -73.8387 N.am      10 UNK        -0.4509 
     23 C         -71.2859   26.9573  -73.0821 C.2       10 UNK         0.4899 
     24 O         -71.2737   27.0664  -71.8559 O.2       10 UNK        -0.4839 
     25 CA        -69.9733   26.6759  -73.8262 C.3       9 UNK         0.0222 
     26 CB        -69.9359   25.2328  -74.3587 C.3       9 UNK        -0.1966 
     27 N         -69.8017   27.6226  -74.9303 N.am      9 UNK        -0.4218 
     28 C         -69.0639   28.7398  -74.8614 C.2       9 UNK         0.5020 
     29 O         -68.3779   29.0353  -73.8810 O.2       9 UNK        -0.5274 
     30 CA        -69.1009   29.7318  -76.0425 C.3       8 UNK         0.0270 
     31 CB        -67.7143   29.8850  -76.7031 C.3       8 UNK        -0.1976 
     32 N         -70.1568   29.4863  -77.0347 N.am      8 UNK        -0.4313 
     33 C         -70.2362   28.5140  -77.9525 C.2       8 UNK         0.5041 
     34 O         -69.3764   27.6511  -78.1411 O.2       8 UNK        -0.5577 
     35 CA        -71.5288   28.4967  -78.7870 C.3       7 UNK         0.0284 
     36 CB        -71.2424   28.9320  -80.2334 C.3       7 UNK        -0.1958 
     37 N         -72.2130   27.1994  -78.7988 N.am      7 UNK        -0.4454 
     38 C         -72.4910   26.4345  -77.7345 C.2       7 UNK         0.5089 
     39 O         -72.1255   26.6793  -76.5836 O.2       7 UNK        -0.5125 
     40 CA        -73.3939   25.2184  -77.9897 C.3       6 UNK         0.0408 
     41 CB        -73.0035   24.0244  -77.1010 C.3       6 UNK        -0.1791 
     42 N         -74.7875   25.5690  -77.7216 N.am      6 UNK        -0.4762 
     43 C         -75.5576   26.3726  -78.4669 C.2       6 UNK         0.5007 
     44 O         -75.1885   26.8413  -79.5456 O.2       6 UNK        -0.5032 
     45 CA        -76.9813   26.6725  -77.9339 C.3       5 UNK         0.0783 
     46 C46       -77.7960   27.5461  -78.9260 C.3       11 UNK        -0.0857 
     47 S47       -79.4805   27.9433  -78.3441 S.3       11 UNK        -0.2512 
     48 C48       -79.3097   29.6789  -77.8198 C.3       11 UNK         0.0225 
     49 N         -77.6962   25.4393  -77.5746 N.am      5 UNK        -0.4615 
     50 C         -77.5019   24.7250  -76.4607 C.2       4 UNK         0.5053 
     51 O         -76.6431   24.9971  -75.6182 O.2       4 UNK        -0.5105 
     52 CA        -78.3558   23.4575  -76.2987 C.3       4 UNK         0.0263 
     53 CB        -77.6789   22.2674  -76.9987 C.3       4 UNK        -0.1981 
     54 N         -78.5428   23.1356  -74.8834 N.am      4 UNK        -0.4224 
     55 C         -79.3593   23.8081  -74.0634 C.2       3 UNK         0.4895 
     56 O         -80.1369   24.6872  -74.4416 O.2       3 UNK        -0.5091 
     57 CA        -79.2511   23.4544  -72.5697 C.3       3 UNK         0.0250 
     58 CB        -78.0375   24.1602  -71.9397 C.3       3 UNK        -0.1996 
     59 N         -80.4542   23.8339  -71.8281 N.am      3 UNK        -0.4254 
     60 C         -81.6286   23.1903  -71.8846 C.2       2 UNK         0.5004 
     61 O         -81.8039   22.1443  -72.5118 O.2       2 UNK        -0.5226 
     62 CA        -82.8062   23.7964  -71.0946 C.3       2 UNK         0.0269 
     63 CB        -83.0709   22.9861  -69.8147 C.3       2 UNK        -0.1926 
     64 N         -82.6100   25.2048  -70.7330 N.am      2 UNK        -0.4687 
     65 C         -82.6893   26.2276  -71.5974 C.2       1 UNK         0.5165 
     66 O         -83.0096   26.0996  -72.7797 O.2       1 UNK        -0.5079 
     67 H67       -85.5902   29.1732  -68.2829 H         1 UNK         0.0900 
     68 H68       -84.2874   28.2386  -67.5464 H         1 UNK         0.0900 
     69 H69       -85.7552   27.4256  -68.0925 H         1 UNK         0.0900 
     70 H70       -82.5775   27.9217  -68.9426 H         1 UNK         0.2959 
     71 H71       -82.7250   28.3573  -71.7671 H         1 UNK         0.1079 
     72 H72       -80.7022   28.8350  -70.3413 H         1 UNK         0.0837 
     73 H73       -80.4641   27.1322  -70.0974 H         1 UNK         0.0837 
     74 H74       -80.7609   29.9161  -72.9626 H         1 UNK         0.0685 
     75 H75       -79.3437   30.0990  -71.9530 H         1 UNK         0.0685 
     76 H76       -80.5172   29.3933  -75.4004 H         1 UNK         0.1434 
     77 H77       -76.6969   30.2041  -77.1819 H         1 UNK         0.1329 
     78 H78       -77.0899   30.0490  -72.9135 H         1 UNK         0.1335 
     79 H79       -75.0019   31.3634  -75.4099 H         1 UNK         0.0680 
     80 H80       -74.9843   30.6094  -73.8346 H         1 UNK         0.0680 
     81 H81       -74.7839   26.8053  -75.1679 H         1 UNK         0.1032 
     82 H82       -75.7291   27.8286  -74.1357 H         1 UNK         0.1032 
     83 H83       -73.6815   28.2457  -72.7181 H         1 UNK         0.0461 
     84 H84       -73.0755   24.7930  -73.0923 H         1 UNK         0.3453 
     85 H85       -74.2385   24.2947  -71.8886 H         1 UNK         0.3453 
     86 H86       -72.2995   26.9828  -74.8486 H         1 UNK         0.2984 
     87 H87       -69.1544   26.7789  -73.1111 H         1 UNK         0.0554 
     88 H88       -68.9866   25.0199  -74.8502 H         1 UNK         0.0847 
     89 H89       -70.7317   25.0349  -75.0764 H         1 UNK         0.0847 
     90 H90       -70.0463   24.5153  -73.5446 H         1 UNK         0.0847 
     91 H91       -70.3611   27.4541  -75.7598 H         1 UNK         0.3141 
     92 H92       -69.3502   30.6978  -75.6004 H         1 UNK         0.0743 
     93 H93       -66.9752   30.2298  -75.9788 H         1 UNK         0.0784 
     94 H94       -67.7373   30.6142  -77.5129 H         1 UNK         0.0784 
     95 H95       -67.3479   28.9418  -77.1086 H         1 UNK         0.0784 
     96 H96       -70.9465   30.1143  -76.9615 H         1 UNK         0.3213 
     97 H97       -72.2338   29.2092  -78.3532 H         1 UNK         0.0855 
     98 H98       -70.7531   29.9067  -80.2593 H         1 UNK         0.0814 
     99 H99       -72.1612   29.0172  -80.8141 H         1 UNK         0.0814 
    100 H100      -70.5860   28.2248  -80.7425 H         1 UNK         0.0814 
    101 H101      -72.6107   26.9184  -79.6838 H         1 UNK         0.3105 
    102 H102      -73.2966   24.9139  -79.0338 H         1 UNK         0.0547 
    103 H103      -73.1360   24.2456  -76.0410 H         1 UNK         0.0837 
    104 H104      -71.9573   23.7539  -77.2496 H         1 UNK         0.0837 
    105 H105      -73.6028   23.1445  -77.3348 H         1 UNK         0.0837 
    106 H106      -75.1836   25.2364  -76.8468 H         1 UNK         0.3020 
    107 H107      -76.8461   27.2590  -77.0216 H         1 UNK         0.1245 
    108 H108      -77.8954   27.0343  -79.8852 H         1 UNK         0.0781 
    109 H109      -77.2652   28.4758  -79.1388 H         1 UNK         0.0781 
    110 H110      -80.3007   30.1348  -77.7982 H         1 UNK         0.0836 
    111 H111      -78.7387   30.2425  -78.5593 H         1 UNK         0.0836 
    112 H112      -78.4000   25.1366  -78.2321 H         1 UNK         0.3022 
    113 H113      -79.3340   23.6270  -76.7542 H         1 UNK         0.0747 
    114 H114      -78.2755   21.3597  -76.9046 H         1 UNK         0.0793 
    115 H115      -77.5517   22.4602  -78.0648 H         1 UNK         0.0793 
    116 H116      -76.6899   22.0642  -76.5853 H         1 UNK         0.0793 
    117 H117      -77.9007   22.4643  -74.4878 H         1 UNK         0.3047 
    118 H118      -79.1165   22.3743  -72.4775 H         1 UNK         0.0822 
    119 H119      -77.9259   23.9006  -70.8869 H         1 UNK         0.0807 
    120 H120      -78.1190   25.2457  -72.0112 H         1 UNK         0.0807 
    121 H121      -77.1110   23.8773  -72.4416 H         1 UNK         0.0807 
    122 H122      -80.4185   24.7100  -71.3297 H         1 UNK         0.2946 
    123 H123      -83.6896   23.7251  -71.7338 H         1 UNK         0.1144 
    124 H124      -83.2558   21.9365  -70.0482 H         1 UNK         0.0793 
    125 H125      -83.9483   23.3567  -69.2842 H         1 UNK         0.0793 
    126 H126      -82.2223   23.0226  -69.1303 H         1 UNK         0.0793 
    127 H127      -82.3775   25.4014  -69.7700 H         1 UNK         0.2896 
@<TRIPOS>BOND
     1    1    2 1    
     2    1   67 1    
     3    1   68 1    
     4    1   69 1    
     5    2    3 2    
     6    2    4 am   BACKBONE|DICT|INTERRES
     7    4    5 1    
     8    4   70 1    
     9    5    6 1    
    10    5   65 1    
    11    5   71 1    
    12    6    7 1    
    13    6   72 1    
    14    6   73 1    
    15    7    8 1    
    16    8    9 1    
    17    8   74 1    
    18    8   75 1    
    19    9   10 ar   
    20    9   14 ar   
    21   10   11 ar   
    22   10   76 1    
    23   11   12 ar   
    24   11   48 1    
    25   12   13 ar   
    26   12   77 1    
    27   13   14 ar   
    28   13   15 1    
    29   14   78 1    
    30   15   16 1    
    31   15   79 1    
    32   15   80 1    
    33   16   17 1    
    34   17   18 1    
    35   17   81 1    
    36   17   82 1    
    37   18   19 1    
    38   18   22 1    
    39   18   83 1    
    40   19   20 am   BACKBONE|DICT|INTERRES
    41   19   21 2    
    42   20   84 1    
    43   20   85 1    
    44   22   23 am   BACKBONE|DICT|INTERRES
    45   22   86 1    
    46   23   24 2    
    47   23   25 1    
    48   25   26 1    
    49   25   27 1    
    50   25   87 1    
    51   26   88 1    
    52   26   89 1    
    53   26   90 1    
    54   27   28 am   BACKBONE|DICT|INTERRES
    55   27   91 1    
    56   28   29 2    
    57   28   30 1    
    58   30   31 1    
    59   30   32 1    
    60   30   92 1    
    61   31   93 1    
    62   31   94 1    
    63   31   95 1    
    64   32   33 am   BACKBONE|DICT|INTERRES
    65   32   96 1    
    66   33   34 2    
    67   33   35 1    
    68   35   36 1    
    69   35   37 1    
    70   35   97 1    
    71   36   98 1    
    72   36   99 1    
    73   36  100 1    
    74   37   38 am   BACKBONE|DICT|INTERRES
    75   37  101 1    
    76   38   39 2    
    77   38   40 1    
    78   40   41 1    
    79   40   42 1    
    80   40  102 1    
    81   41  103 1    
    82   41  104 1    
    83   41  105 1    
    84   42   43 am   BACKBONE|DICT|INTERRES
    85   42  106 1    
    86   43   44 2    
    87   43   45 1    
    88   45   46 1    
    89   45   49 1    
    90   45  107 1    
    91   46   47 1    
    92   46  108 1    
    93   46  109 1    
    94   47   48 1    
    95   48  110 1    
    96   48  111 1    
    97   49   50 am   BACKBONE|DICT|INTERRES
    98   49  112 1    
    99   50   51 2    
   100   50   52 1    
   101   52   53 1    
   102   52   54 1    
   103   52  113 1    
   104   53  114 1    
   105   53  115 1    
   106   53  116 1    
   107   54   55 am   BACKBONE|DICT|INTERRES
   108   54  117 1    
   109   55   56 2    
   110   55   57 1    
   111   57   58 1    
   112   57   59 1    
   113   57  118 1    
   114   58  119 1    
   115   58  120 1    
   116   58  121 1    
   117   59   60 am   BACKBONE|DICT|INTERRES
   118   59  122 1    
   119   60   61 2    
   120   60   62 1    
   121   62   63 1    
   122   62   64 1    
   123   62  123 1    
   124   63  124 1    
   125   63  125 1    
   126   63  126 1    
   127   64   65 am   BACKBONE|DICT|INTERRES
   128   64  127 1    
   129   65   66 2    
@<TRIPOS>SUBSTRUCTURE
     1 UNK         1 GROUP             0       ****    0 ROOT    
