@<TRIPOS>MOLECULE
3R135
127   129    1
SMALL
USER_CHARGES


@<TRIPOS>ATOM
      1 CA        -82.3381   22.5488  -71.8783 C.3       0 UNK        -0.1998 
      2 C         -81.5523   23.6990  -72.4871 C.2       0 UNK         0.4909 
      3 O         -80.5796   23.4596  -73.2056 O.2       0 UNK        -0.5240 
      4 N         -81.9762   24.9455  -72.2234 N.am      1 UNK        -0.4739 
      5 CA        -81.3348   26.1939  -72.6733 C.3       1 UNK         0.0864 
      6 C6        -79.9618   26.4297  -71.9935 C.3       11 UNK        -0.0881 
      7 S7        -80.0599   26.6787  -70.1887 S.3       11 UNK        -0.2682 
      8 C8        -80.0305   28.4973  -70.0305 C.3       11 UNK         0.0289 
      9 C9        -78.8516   29.1419  -70.7510 C.ar      11 UNK        -0.0687 
     10 C10       -79.0737   29.9185  -71.8929 C.ar      11 UNK        -0.0823 
     11 C11       -78.0032   30.4956  -72.5817 C.ar      11 UNK        -0.0830 
     12 C12       -76.7025   30.3102  -72.1057 C.ar      11 UNK        -0.1021 
     13 C13       -76.4656   29.5312  -70.9694 C.ar      11 UNK        -0.0753 
     14 C14       -77.5440   28.9517  -70.2924 C.ar      11 UNK        -0.0933 
     15 C15       -75.0416   29.3281  -70.4789 C.3       11 UNK         0.0166 
     16 S16       -74.1109   28.2143  -71.5781 S.3       11 UNK        -0.2615 
     17 C17       -72.4267   28.4551  -70.9194 C.3       11 UNK        -0.0865 
     18 CA        -71.6909   29.6441  -71.5944 C.3       10 UNK         0.0862 
     19 C         -70.3699   29.9886  -70.8452 C.2       10 UNK         0.5551 
     20 N         -69.2085   29.9573  -71.4877 N.am      10 UNK        -0.7319 
     21 O         -70.4024   30.3002  -69.6572 O.2       10 UNK        -0.5018 
     22 N         -71.5272   29.4339  -73.0434 N.am      10 UNK        -0.4509 
     23 C         -71.4538   30.4098  -73.9584 C.2       10 UNK         0.4899 
     24 O         -71.5707   31.6053  -73.6866 O.2       10 UNK        -0.4839 
     25 CA        -71.1755   30.0039  -75.4208 C.3       9 UNK         0.0222 
     26 CB        -69.8845   30.6683  -75.9317 C.3       9 UNK        -0.1966 
     27 N         -71.0663   28.5539  -75.6174 N.am      9 UNK        -0.4218 
     28 C         -72.1021   27.7247  -75.7956 C.2       9 UNK         0.5020 
     29 O         -73.2766   28.0909  -75.8330 O.2       9 UNK        -0.5274 
     30 CA        -71.7492   26.2369  -75.9028 C.3       8 UNK         0.0270 
     31 CB        -71.5449   25.6307  -74.5023 C.3       8 UNK        -0.1976 
     32 N         -72.8167   25.5037  -76.5811 N.am      8 UNK        -0.4313 
     33 C         -72.6266   24.5804  -77.5313 C.2       8 UNK         0.5041 
     34 O         -71.5187   24.2771  -77.9782 O.2       8 UNK        -0.5577 
     35 CA        -73.8645   23.8404  -78.0656 C.3       7 UNK         0.0284 
     36 CB        -74.2078   22.6499  -77.1556 C.3       7 UNK        -0.1958 
     37 N         -75.0470   24.6879  -78.2203 N.am      7 UNK        -0.4454 
     38 C         -75.1951   25.6331  -79.1592 C.2       7 UNK         0.5089 
     39 O         -74.3317   25.9199  -79.9889 O.2       7 UNK        -0.5125 
     40 CA        -76.5394   26.3796  -79.1800 C.3       6 UNK         0.0408 
     41 CB        -77.6232   25.5498  -79.8875 C.3       6 UNK        -0.1791 
     42 N         -76.9748   26.7126  -77.8238 N.am      6 UNK        -0.4762 
     43 C         -76.5498   27.7900  -77.1463 C.2       6 UNK         0.5007 
     44 O         -75.8716   28.6798  -77.6612 O.2       6 UNK        -0.5032 
     45 CA        -76.9441   27.8959  -75.6541 C.3       5 UNK         0.0783 
     46 C46       -78.0668   28.9450  -75.4343 C.3       11 UNK        -0.0857 
     47 S47       -77.4095   30.6458  -75.3133 S.3       11 UNK        -0.2512 
     48 C48       -78.2584   31.3134  -73.8419 C.3       11 UNK         0.0225 
     49 N         -77.2938   26.5912  -75.0729 N.am      5 UNK        -0.4615 
     50 C         -76.3945   25.6321  -74.8037 C.2       4 UNK         0.5053 
     51 O         -75.1902   25.7486  -75.0160 O.2       4 UNK        -0.5105 
     52 CA        -76.9097   24.2911  -74.2576 C.3       4 UNK         0.0263 
     53 CB        -76.9633   24.3031  -72.7202 C.3       4 UNK        -0.1981 
     54 N         -78.1894   23.8661  -74.8410 N.am      4 UNK        -0.4224 
     55 C         -78.3193   23.5255  -76.1338 C.2       3 UNK         0.4895 
     56 O         -77.4230   23.6689  -76.9651 O.2       3 UNK        -0.5091 
     57 CA        -79.6587   22.9294  -76.5833 C.3       3 UNK         0.0250 
     58 CB        -79.8703   21.5255  -75.9917 C.3       3 UNK        -0.1996 
     59 N         -80.7655   23.8039  -76.2092 N.am      3 UNK        -0.4254 
     60 C         -81.2425   24.7885  -76.9845 C.2       2 UNK         0.5004 
     61 O         -80.8611   25.0005  -78.1359 O.2       2 UNK        -0.5226 
     62 CA        -82.3216   25.7064  -76.3771 C.3       2 UNK         0.0269 
     63 CB        -83.7235   25.2453  -76.8077 C.3       2 UNK        -0.1926 
     64 N         -82.2743   25.8007  -74.9137 N.am      2 UNK        -0.4687 
     65 C         -81.2310   26.2718  -74.2151 C.2       1 UNK         0.5165 
     66 O         -80.2050   26.6962  -74.7491 O.2       1 UNK        -0.5079 
     67 H67       -83.1778   22.8999  -71.2790 H         1 UNK         0.0900 
     68 H68       -82.7271   21.9034  -72.6653 H         1 UNK         0.0900 
     69 H69       -81.6891   21.9524  -71.2379 H         1 UNK         0.0900 
     70 H70       -82.7856   25.0705  -71.6308 H         1 UNK         0.2959 
     71 H71       -81.9948   27.0138  -72.3858 H         1 UNK         0.1079 
     72 H72       -79.3338   25.5602  -72.1621 H         1 UNK         0.0837 
     73 H73       -79.4262   27.2628  -72.4455 H         1 UNK         0.0837 
     74 H74       -79.9882   28.7574  -68.9720 H         1 UNK         0.0685 
     75 H75       -80.9755   28.8953  -70.4034 H         1 UNK         0.0685 
     76 H76       -80.0826   30.0589  -72.2562 H         1 UNK         0.1434 
     77 H77       -75.8692   30.7529  -72.6347 H         1 UNK         0.1329 
     78 H78       -77.3690   28.3436  -69.4154 H         1 UNK         0.1335 
     79 H79       -74.5422   30.2967  -70.4295 H         1 UNK         0.0680 
     80 H80       -75.0343   28.9226  -69.4659 H         1 UNK         0.0680 
     81 H81       -72.4955   28.5982  -69.8390 H         1 UNK         0.1032 
     82 H82       -71.8641   27.5307  -71.0612 H         1 UNK         0.1032 
     83 H83       -72.3236   30.5236  -71.4614 H         1 UNK         0.0461 
     84 H84       -68.3624   30.1876  -70.9907 H         1 UNK         0.3453 
     85 H85       -69.1708   29.7111  -72.4631 H         1 UNK         0.3453 
     86 H86       -71.4422   28.4776  -73.3496 H         1 UNK         0.2984 
     87 H87       -72.0066   30.3803  -76.0211 H         1 UNK         0.0554 
     88 H88       -69.9455   31.7550  -75.8565 H         1 UNK         0.0847 
     89 H89       -69.7040   30.4314  -76.9804 H         1 UNK         0.0847 
     90 H90       -69.0112   30.3521  -75.3600 H         1 UNK         0.0847 
     91 H91       -70.1332   28.1662  -75.5939 H         1 UNK         0.3141 
     92 H92       -70.8178   26.1551  -76.4671 H         1 UNK         0.0743 
     93 H93       -72.4449   25.7226  -73.8916 H         1 UNK         0.0784 
     94 H94       -71.2914   24.5722  -74.5637 H         1 UNK         0.0784 
     95 H95       -70.7329   26.1255  -73.9684 H         1 UNK         0.0784 
     96 H96       -73.7580   25.7132  -76.2492 H         1 UNK         0.3213 
     97 H97       -73.6096   23.4460  -79.0517 H         1 UNK         0.0855 
     98 H98       -74.4756   22.9772  -76.1508 H         1 UNK         0.0814 
     99 H99       -73.3582   21.9721  -77.0623 H         1 UNK         0.0814 
    100 H100      -75.0422   22.0720  -77.5536 H         1 UNK         0.0814 
    101 H101      -75.8412   24.4715  -77.6231 H         1 UNK         0.3105 
    102 H102      -76.4056   27.3000  -79.7524 H         1 UNK         0.0547 
    103 H103      -77.3328   25.3291  -80.9153 H         1 UNK         0.0837 
    104 H104      -77.8036   24.5967  -79.3906 H         1 UNK         0.0837 
    105 H105      -78.5710   26.0870  -79.9266 H         1 UNK         0.0837 
    106 H106      -77.5134   26.0125  -77.3313 H         1 UNK         0.3020 
    107 H107      -76.0498   28.2380  -75.1253 H         1 UNK         0.1245 
    108 H108      -78.5978   28.7243  -74.5092 H         1 UNK         0.0781 
    109 H109      -78.8238   28.8993  -76.2197 H         1 UNK         0.0781 
    110 H110      -79.3265   31.3778  -74.0558 H         1 UNK         0.0836 
    111 H111      -77.9187   32.3363  -73.6739 H         1 UNK         0.0836 
    112 H112      -78.2816   26.4278  -74.8976 H         1 UNK         0.3022 
    113 H113      -76.1833   23.5263  -74.5399 H         1 UNK         0.0747 
    114 H114      -77.6826   23.5864  -72.3230 H         1 UNK         0.0793 
    115 H115      -75.9871   24.0423  -72.3103 H         1 UNK         0.0793 
    116 H116      -77.2010   25.2898  -72.3234 H         1 UNK         0.0793 
    117 H117      -78.9790   23.7361  -74.2119 H         1 UNK         0.3047 
    118 H118      -79.6270   22.8245  -77.6702 H         1 UNK         0.0822 
    119 H119      -80.7961   21.0803  -76.3561 H         1 UNK         0.0807 
    120 H120      -79.9130   21.5372  -74.9025 H         1 UNK         0.0807 
    121 H121      -79.0562   20.8579  -76.2774 H         1 UNK         0.0807 
    122 H122      -81.0896   23.7357  -75.2518 H         1 UNK         0.2946 
    123 H123      -82.1489   26.7077  -76.7785 H         1 UNK         0.1144 
    124 H124      -84.4925   25.9389  -76.4670 H         1 UNK         0.0793 
    125 H125      -83.9620   24.2566  -76.4137 H         1 UNK         0.0793 
    126 H126      -83.7992   25.1899  -77.8948 H         1 UNK         0.0793 
    127 H127      -83.0717   25.4463  -74.4049 H         1 UNK         0.2896 
@<TRIPOS>BOND
     1    1    2 1    
     2    1   67 1    
     3    1   68 1    
     4    1   69 1    
     5    2    3 2    
     6    2    4 am   BACKBONE|DICT|INTERRES
     7    4    5 1    
     8    4   70 1    
     9    5    6 1    
    10    5   65 1    
    11    5   71 1    
    12    6    7 1    
    13    6   72 1    
    14    6   73 1    
    15    7    8 1    
    16    8    9 1    
    17    8   74 1    
    18    8   75 1    
    19    9   10 ar   
    20    9   14 ar   
    21   10   11 ar   
    22   10   76 1    
    23   11   12 ar   
    24   11   48 1    
    25   12   13 ar   
    26   12   77 1    
    27   13   14 ar   
    28   13   15 1    
    29   14   78 1    
    30   15   16 1    
    31   15   79 1    
    32   15   80 1    
    33   16   17 1    
    34   17   18 1    
    35   17   81 1    
    36   17   82 1    
    37   18   19 1    
    38   18   22 1    
    39   18   83 1    
    40   19   20 am   BACKBONE|DICT|INTERRES
    41   19   21 2    
    42   20   84 1    
    43   20   85 1    
    44   22   23 am   BACKBONE|DICT|INTERRES
    45   22   86 1    
    46   23   24 2    
    47   23   25 1    
    48   25   26 1    
    49   25   27 1    
    50   25   87 1    
    51   26   88 1    
    52   26   89 1    
    53   26   90 1    
    54   27   28 am   BACKBONE|DICT|INTERRES
    55   27   91 1    
    56   28   29 2    
    57   28   30 1    
    58   30   31 1    
    59   30   32 1    
    60   30   92 1    
    61   31   93 1    
    62   31   94 1    
    63   31   95 1    
    64   32   33 am   BACKBONE|DICT|INTERRES
    65   32   96 1    
    66   33   34 2    
    67   33   35 1    
    68   35   36 1    
    69   35   37 1    
    70   35   97 1    
    71   36   98 1    
    72   36   99 1    
    73   36  100 1    
    74   37   38 am   BACKBONE|DICT|INTERRES
    75   37  101 1    
    76   38   39 2    
    77   38   40 1    
    78   40   41 1    
    79   40   42 1    
    80   40  102 1    
    81   41  103 1    
    82   41  104 1    
    83   41  105 1    
    84   42   43 am   BACKBONE|DICT|INTERRES
    85   42  106 1    
    86   43   44 2    
    87   43   45 1    
    88   45   46 1    
    89   45   49 1    
    90   45  107 1    
    91   46   47 1    
    92   46  108 1    
    93   46  109 1    
    94   47   48 1    
    95   48  110 1    
    96   48  111 1    
    97   49   50 am   BACKBONE|DICT|INTERRES
    98   49  112 1    
    99   50   51 2    
   100   50   52 1    
   101   52   53 1    
   102   52   54 1    
   103   52  113 1    
   104   53  114 1    
   105   53  115 1    
   106   53  116 1    
   107   54   55 am   BACKBONE|DICT|INTERRES
   108   54  117 1    
   109   55   56 2    
   110   55   57 1    
   111   57   58 1    
   112   57   59 1    
   113   57  118 1    
   114   58  119 1    
   115   58  120 1    
   116   58  121 1    
   117   59   60 am   BACKBONE|DICT|INTERRES
   118   59  122 1    
   119   60   61 2    
   120   60   62 1    
   121   62   63 1    
   122   62   64 1    
   123   62  123 1    
   124   63  124 1    
   125   63  125 1    
   126   63  126 1    
   127   64   65 am   BACKBONE|DICT|INTERRES
   128   64  127 1    
   129   65   66 2    
@<TRIPOS>SUBSTRUCTURE
     1 UNK         1 GROUP             0       ****    0 ROOT    
