@<TRIPOS>MOLECULE
3R135
127   129    1
SMALL
USER_CHARGES


@<TRIPOS>ATOM
      1 CA        -83.4934   28.9674  -75.0094 C.3       0 UNK        -0.1998 
      2 C         -82.0007   29.1663  -75.2609 C.2       0 UNK         0.4909 
      3 O         -81.6464   29.7866  -76.2616 O.2       0 UNK        -0.5240 
      4 N         -81.0823   28.6883  -74.4074 N.am      1 UNK        -0.4739 
      5 CA        -81.2632   27.8921  -73.1814 C.3       1 UNK         0.0864 
      6 C6        -82.0548   28.5993  -72.0426 C.3       11 UNK        -0.0881 
      7 S7        -81.4734   30.2978  -71.6870 S.3       11 UNK        -0.2682 
      8 C8        -80.4893   30.0916  -70.1656 C.3       11 UNK         0.0289 
      9 C9        -79.1140   29.5081  -70.4555 C.ar      11 UNK        -0.0687 
     10 C10       -78.8938   28.1344  -70.3287 C.ar      11 UNK        -0.0823 
     11 C11       -77.6484   27.5881  -70.6470 C.ar      11 UNK        -0.0830 
     12 C12       -76.6083   28.4269  -71.0542 C.ar      11 UNK        -0.1021 
     13 C13       -76.8058   29.8061  -71.1678 C.ar      11 UNK        -0.0753 
     14 C14       -78.0650   30.3393  -70.8672 C.ar      11 UNK        -0.0933 
     15 C15       -75.6891   30.7143  -71.6768 C.3       11 UNK         0.0166 
     16 S16       -74.0567   30.3251  -70.9582 S.3       11 UNK        -0.2615 
     17 C17       -73.0179   31.6264  -71.7090 C.3       11 UNK        -0.0865 
     18 CA        -71.8876   31.1048  -72.6385 C.3       10 UNK         0.0862 
     19 C         -70.7412   30.3714  -71.8783 C.2       10 UNK         0.5551 
     20 N         -70.2033   29.2657  -72.3807 N.am      10 UNK        -0.7319 
     21 O         -70.3119   30.8266  -70.8207 O.2       10 UNK        -0.5018 
     22 N         -72.4185   30.3632  -73.7958 N.am      10 UNK        -0.4509 
     23 C         -71.9356   30.4570  -75.0407 C.2       10 UNK         0.4899 
     24 O         -71.0390   31.2365  -75.3694 O.2       10 UNK        -0.4839 
     25 CA        -72.5518   29.5069  -76.0869 C.3       9 UNK         0.0222 
     26 CB        -71.8788   29.6334  -77.4699 C.3       9 UNK        -0.1966 
     27 N         -72.5704   28.0988  -75.6703 N.am      9 UNK        -0.4218 
     28 C         -71.5359   27.3475  -75.2615 C.2       9 UNK         0.5020 
     29 O         -70.4063   27.7850  -75.0394 O.2       9 UNK        -0.5274 
     30 CA        -71.8035   25.8430  -75.0740 C.3       8 UNK         0.0270 
     31 CB        -72.4058   25.5682  -73.6863 C.3       8 UNK        -0.1976 
     32 N         -72.6648   25.2745  -76.1183 N.am      8 UNK        -0.4313 
     33 C         -72.3261   25.1635  -77.4128 C.2       8 UNK         0.5041 
     34 O         -71.2203   25.4712  -77.8598 O.2       8 UNK        -0.5577 
     35 CA        -73.3996   24.6302  -78.3802 C.3       7 UNK         0.0284 
     36 CB        -73.4521   23.0940  -78.3603 C.3       7 UNK        -0.1958 
     37 N         -74.7277   25.1795  -78.0997 N.am      7 UNK        -0.4454 
     38 C         -75.0780   26.4549  -78.3224 C.2       7 UNK         0.5089 
     39 O         -74.3590   27.2741  -78.8936 O.2       7 UNK        -0.5125 
     40 CA        -76.4480   26.9075  -77.7871 C.3       6 UNK         0.0408 
     41 CB        -77.5523   26.6592  -78.8259 C.3       6 UNK        -0.1791 
     42 N         -76.8070   26.2601  -76.5236 N.am      6 UNK        -0.4762 
     43 C         -76.1359   26.4067  -75.3717 C.2       6 UNK         0.5007 
     44 O         -75.1723   27.1586  -75.2339 O.2       6 UNK        -0.5032 
     45 CA        -76.5899   25.5351  -74.1871 C.3       5 UNK         0.0783 
     46 C46       -77.7792   26.1969  -73.4671 C.3       11 UNK        -0.0857 
     47 S47       -78.3381   25.2689  -71.9942 S.3       11 UNK        -0.2512 
     48 C48       -77.4422   26.0827  -70.6311 C.3       11 UNK         0.0225 
     49 N         -76.8939   24.1701  -74.6179 N.am      5 UNK        -0.4615 
     50 C         -75.9861   23.2920  -75.0580 C.2       4 UNK         0.5053 
     51 O         -74.7809   23.5316  -75.1178 O.2       4 UNK        -0.5105 
     52 CA        -76.5222   21.9376  -75.5500 C.3       4 UNK         0.0263 
     53 CB        -76.6687   20.9582  -74.3751 C.3       4 UNK        -0.1981 
     54 N         -77.8054   22.0634  -76.2489 N.am      4 UNK        -0.4224 
     55 C         -77.9636   22.6798  -77.4297 C.2       3 UNK         0.4895 
     56 O         -77.0338   23.1584  -78.0798 O.2       3 UNK        -0.5091 
     57 CA        -79.4081   22.8304  -77.9438 C.3       3 UNK         0.0250 
     58 CB        -79.8664   21.5489  -78.6580 C.3       3 UNK        -0.1996 
     59 N         -80.3699   23.1833  -76.8893 N.am      3 UNK        -0.4254 
     60 C         -80.3148   24.3156  -76.1744 C.2       2 UNK         0.5004 
     61 O         -79.4518   25.1812  -76.3499 O.2       2 UNK        -0.5226 
     62 CA        -81.3517   24.5000  -75.0529 C.3       2 UNK         0.0269 
     63 CB        -81.1403   23.4304  -73.9577 C.3       2 UNK        -0.1926 
     64 N         -81.1674   25.8541  -74.5267 N.am      2 UNK        -0.4687 
     65 C         -81.7664   26.4628  -73.4958 C.2       1 UNK         0.5165 
     66 O         -82.6820   25.9656  -72.8391 O.2       1 UNK        -0.5079 
     67 H67       -83.7345   27.9628  -74.6697 H         1 UNK         0.0900 
     68 H68       -83.8487   29.6851  -74.2710 H         1 UNK         0.0900 
     69 H69       -84.0542   29.1371  -75.9283 H         1 UNK         0.0900 
     70 H70       -80.1166   28.8898  -74.6242 H         1 UNK         0.2959 
     71 H71       -80.2538   27.7461  -72.7956 H         1 UNK         0.1079 
     72 H72       -81.9972   28.0080  -71.1272 H         1 UNK         0.0837 
     73 H73       -83.1171   28.6525  -72.2808 H         1 UNK         0.0837 
     74 H74       -81.0332   29.4717  -69.4511 H         1 UNK         0.0685 
     75 H75       -80.3744   31.0672  -69.6909 H         1 UNK         0.0685 
     76 H76       -79.7018   27.4825  -70.0258 H         1 UNK         0.1434 
     77 H77       -75.6513   27.9994  -71.3204 H         1 UNK         0.1329 
     78 H78       -78.2394   31.4014  -70.9742 H         1 UNK         0.1335 
     79 H79       -75.9250   31.7569  -71.4574 H         1 UNK         0.0680 
     80 H80       -75.6326   30.6251  -72.7626 H         1 UNK         0.0680 
     81 H81       -72.5965   32.2300  -70.9029 H         1 UNK         0.1032 
     82 H82       -73.6501   32.3141  -72.2725 H         1 UNK         0.1032 
     83 H83       -71.4030   32.0061  -73.0183 H         1 UNK         0.0461 
     84 H84       -69.4577   28.8137  -71.8762 H         1 UNK         0.3453 
     85 H85       -70.4828   28.9094  -73.2865 H         1 UNK         0.3453 
     86 H86       -73.1305   29.6765  -73.5929 H         1 UNK         0.2984 
     87 H87       -73.5952   29.8052  -76.1987 H         1 UNK         0.0554 
     88 H88       -71.9417   30.6551  -77.8464 H         1 UNK         0.0847 
     89 H89       -72.3594   28.9885  -78.2053 H         1 UNK         0.0847 
     90 H90       -70.8229   29.3631  -77.4305 H         1 UNK         0.0847 
     91 H91       -73.4857   27.6512  -75.7039 H         1 UNK         0.3141 
     92 H92       -70.8413   25.3295  -75.1297 H         1 UNK         0.0743 
     93 H93       -71.7418   25.9247  -72.8976 H         1 UNK         0.0784 
     94 H94       -73.3644   26.0684  -73.5523 H         1 UNK         0.0784 
     95 H95       -72.5587   24.5010  -73.5237 H         1 UNK         0.0784 
     96 H96       -73.5644   24.9074  -75.8214 H         1 UNK         0.3213 
     97 H97       -73.1168   24.9404  -79.3887 H         1 UNK         0.0855 
     98 H98       -73.7114   22.7059  -77.3758 H         1 UNK         0.0814 
     99 H99       -72.4844   22.6698  -78.6312 H         1 UNK         0.0814 
    100 H100      -74.1846   22.7132  -79.0723 H         1 UNK         0.0814 
    101 H101      -75.4152   24.5539  -77.6953 H         1 UNK         0.3105 
    102 H102      -76.3920   27.9823  -77.6023 H         1 UNK         0.0547 
    103 H103      -78.5168   27.0270  -78.4751 H         1 UNK         0.0837 
    104 H104      -77.6628   25.5990  -79.0538 H         1 UNK         0.0837 
    105 H105      -77.3292   27.1725  -79.7620 H         1 UNK         0.0837 
    106 H106      -77.6365   25.6704  -76.5327 H         1 UNK         0.3020 
    107 H107      -75.7550   25.4842  -73.4849 H         1 UNK         0.1245 
    108 H108      -78.6223   26.2721  -74.1474 H         1 UNK         0.0781 
    109 H109      -77.5437   27.2279  -73.2109 H         1 UNK         0.0781 
    110 H110      -76.3824   25.8331  -70.7025 H         1 UNK         0.0836 
    111 H111      -77.7899   25.6757  -69.6806 H         1 UNK         0.0836 
    112 H112      -77.8669   23.9067  -74.6123 H         1 UNK         0.3022 
    113 H113      -75.7923   21.5267  -76.2509 H         1 UNK         0.0747 
    114 H114      -76.9787   19.9708  -74.7178 H         1 UNK         0.0793 
    115 H115      -75.7195   20.8343  -73.8517 H         1 UNK         0.0793 
    116 H116      -77.4003   21.3062  -73.6444 H         1 UNK         0.0793 
    117 H117      -78.6209   21.6883  -75.7872 H         1 UNK         0.3047 
    118 H118      -79.4080   23.6428  -78.6740 H         1 UNK         0.0822 
    119 H119      -80.8475   21.6790  -79.1152 H         1 UNK         0.0807 
    120 H120      -79.9236   20.7004  -77.9751 H         1 UNK         0.0807 
    121 H121      -79.1733   21.2787  -79.4562 H         1 UNK         0.0807 
    122 H122      -81.1047   22.5164  -76.7001 H         1 UNK         0.2946 
    123 H123      -82.3542   24.4180  -75.4770 H         1 UNK         0.1144 
    124 H124      -80.1438   23.4899  -73.5210 H         1 UNK         0.0793 
    125 H125      -81.2595   22.4228  -74.3571 H         1 UNK         0.0793 
    126 H126      -81.8632   23.5261  -73.1485 H         1 UNK         0.0793 
    127 H127      -80.4601   26.3624  -75.0456 H         1 UNK         0.2896 
@<TRIPOS>BOND
     1    1    2 1    
     2    1   67 1    
     3    1   68 1    
     4    1   69 1    
     5    2    3 2    
     6    2    4 am   BACKBONE|DICT|INTERRES
     7    4    5 1    
     8    4   70 1    
     9    5    6 1    
    10    5   65 1    
    11    5   71 1    
    12    6    7 1    
    13    6   72 1    
    14    6   73 1    
    15    7    8 1    
    16    8    9 1    
    17    8   74 1    
    18    8   75 1    
    19    9   10 ar   
    20    9   14 ar   
    21   10   11 ar   
    22   10   76 1    
    23   11   12 ar   
    24   11   48 1    
    25   12   13 ar   
    26   12   77 1    
    27   13   14 ar   
    28   13   15 1    
    29   14   78 1    
    30   15   16 1    
    31   15   79 1    
    32   15   80 1    
    33   16   17 1    
    34   17   18 1    
    35   17   81 1    
    36   17   82 1    
    37   18   19 1    
    38   18   22 1    
    39   18   83 1    
    40   19   20 am   BACKBONE|DICT|INTERRES
    41   19   21 2    
    42   20   84 1    
    43   20   85 1    
    44   22   23 am   BACKBONE|DICT|INTERRES
    45   22   86 1    
    46   23   24 2    
    47   23   25 1    
    48   25   26 1    
    49   25   27 1    
    50   25   87 1    
    51   26   88 1    
    52   26   89 1    
    53   26   90 1    
    54   27   28 am   BACKBONE|DICT|INTERRES
    55   27   91 1    
    56   28   29 2    
    57   28   30 1    
    58   30   31 1    
    59   30   32 1    
    60   30   92 1    
    61   31   93 1    
    62   31   94 1    
    63   31   95 1    
    64   32   33 am   BACKBONE|DICT|INTERRES
    65   32   96 1    
    66   33   34 2    
    67   33   35 1    
    68   35   36 1    
    69   35   37 1    
    70   35   97 1    
    71   36   98 1    
    72   36   99 1    
    73   36  100 1    
    74   37   38 am   BACKBONE|DICT|INTERRES
    75   37  101 1    
    76   38   39 2    
    77   38   40 1    
    78   40   41 1    
    79   40   42 1    
    80   40  102 1    
    81   41  103 1    
    82   41  104 1    
    83   41  105 1    
    84   42   43 am   BACKBONE|DICT|INTERRES
    85   42  106 1    
    86   43   44 2    
    87   43   45 1    
    88   45   46 1    
    89   45   49 1    
    90   45  107 1    
    91   46   47 1    
    92   46  108 1    
    93   46  109 1    
    94   47   48 1    
    95   48  110 1    
    96   48  111 1    
    97   49   50 am   BACKBONE|DICT|INTERRES
    98   49  112 1    
    99   50   51 2    
   100   50   52 1    
   101   52   53 1    
   102   52   54 1    
   103   52  113 1    
   104   53  114 1    
   105   53  115 1    
   106   53  116 1    
   107   54   55 am   BACKBONE|DICT|INTERRES
   108   54  117 1    
   109   55   56 2    
   110   55   57 1    
   111   57   58 1    
   112   57   59 1    
   113   57  118 1    
   114   58  119 1    
   115   58  120 1    
   116   58  121 1    
   117   59   60 am   BACKBONE|DICT|INTERRES
   118   59  122 1    
   119   60   61 2    
   120   60   62 1    
   121   62   63 1    
   122   62   64 1    
   123   62  123 1    
   124   63  124 1    
   125   63  125 1    
   126   63  126 1    
   127   64   65 am   BACKBONE|DICT|INTERRES
   128   64  127 1    
   129   65   66 2    
@<TRIPOS>SUBSTRUCTURE
     1 UNK         1 GROUP             0       ****    0 ROOT    
