@<TRIPOS>MOLECULE
3R135
127   129    1
SMALL
USER_CHARGES


@<TRIPOS>ATOM
      1 CA        -78.0585   29.9232  -76.7431 C.3       0 UNK        -0.1998 
      2 C         -78.4373   28.9399  -75.6472 C.2       0 UNK         0.4909 
      3 O         -77.8001   27.8939  -75.5138 O.2       0 UNK        -0.5240 
      4 N         -79.4730   29.2786  -74.8708 N.am      1 UNK        -0.4739 
      5 CA        -80.0548   28.4346  -73.8271 C.3       1 UNK         0.0864 
      6 C6        -80.9524   29.2836  -72.8895 C.3       11 UNK        -0.0881 
      7 S7        -81.3752   28.4430  -71.3252 S.3       11 UNK        -0.2682 
      8 C8        -80.1516   29.1559  -70.1787 C.3       11 UNK         0.0289 
      9 C9        -78.7327   28.7636  -70.5613 C.ar      11 UNK        -0.0687 
     10 C10       -78.3252   27.4319  -70.4517 C.ar      11 UNK        -0.0823 
     11 C11       -77.0415   27.0465  -70.8463 C.ar      11 UNK        -0.0830 
     12 C12       -76.1494   28.0122  -71.3231 C.ar      11 UNK        -0.1021 
     13 C13       -76.5360   29.3533  -71.4091 C.ar      11 UNK        -0.0753 
     14 C14       -77.8324   29.7220  -71.0366 C.ar      11 UNK        -0.0933 
     15 C15       -75.5458   30.4107  -71.8707 C.3       11 UNK         0.0166 
     16 S16       -75.6000   30.6573  -73.6715 S.3       11 UNK        -0.2615 
     17 C17       -74.4324   32.0547  -73.8453 C.3       11 UNK        -0.0865 
     18 CA        -73.1679   31.7228  -74.6923 C.3       10 UNK         0.0862 
     19 C         -72.2489   32.9640  -74.9048 C.2       10 UNK         0.5551 
     20 N         -70.9327   32.8072  -74.9771 N.am      10 UNK        -0.7319 
     21 O         -72.7350   34.0849  -75.0359 O.2       10 UNK        -0.5018 
     22 N         -72.4624   30.5044  -74.2554 N.am      10 UNK        -0.4509 
     23 C         -71.9249   30.2743  -73.0481 C.2       10 UNK         0.4899 
     24 O         -71.9089   31.1058  -72.1402 O.2       10 UNK        -0.4839 
     25 CA        -71.3211   28.8780  -72.7943 C.3       9 UNK         0.0222 
     26 CB        -71.7561   28.3166  -71.4280 C.3       9 UNK        -0.1966 
     27 N         -71.7055   27.9256  -73.8402 N.am      9 UNK        -0.4218 
     28 C         -70.8782   27.3876  -74.7453 C.2       9 UNK         0.5020 
     29 O         -69.6557   27.5388  -74.7401 O.2       9 UNK        -0.5274 
     30 CA        -71.5285   26.5603  -75.8715 C.3       8 UNK         0.0270 
     31 CB        -71.5236   25.0677  -75.5063 C.3       8 UNK        -0.1976 
     32 N         -72.8917   26.9857  -76.2325 N.am      8 UNK        -0.4313 
     33 C         -73.1989   28.2024  -76.7141 C.2       8 UNK         0.5041 
     34 O         -72.3605   29.0968  -76.8357 O.2       8 UNK        -0.5577 
     35 CA        -74.6652   28.5230  -77.0719 C.3       7 UNK         0.0284 
     36 CB        -74.7588   29.4574  -78.2988 C.3       7 UNK        -0.1958 
     37 N         -75.5376   27.3542  -77.2300 N.am      7 UNK        -0.4454 
     38 C         -75.4433   26.3861  -78.1526 C.2       7 UNK         0.5089 
     39 O         -74.5962   26.3719  -79.0475 O.2       7 UNK        -0.5125 
     40 CA        -76.4510   25.2221  -78.0268 C.3       6 UNK         0.0408 
     41 CB        -76.0238   23.9885  -78.8477 C.3       6 UNK        -0.1791 
     42 N         -76.7395   24.8164  -76.6434 N.am      6 UNK        -0.4762 
     43 C         -75.8512   24.5155  -75.6814 C.2       6 UNK         0.5007 
     44 O         -74.6333   24.6388  -75.8038 O.2       6 UNK        -0.5032 
     45 CA        -76.4201   23.9760  -74.3615 C.3       5 UNK         0.0783 
     46 C46       -77.0146   25.1248  -73.5138 C.3       11 UNK        -0.0857 
     47 S47       -77.5992   24.5422  -71.8884 S.3       11 UNK        -0.2512 
     48 C48       -76.6277   25.5848  -70.7547 C.3       11 UNK         0.0225 
     49 N         -77.3917   22.9158  -74.6400 N.am      5 UNK        -0.4615 
     50 C         -77.0811   21.6256  -74.8237 C.2       4 UNK         0.5053 
     51 O         -75.9355   21.1823  -74.7403 O.2       4 UNK        -0.5105 
     52 CA        -78.2343   20.6511  -75.1331 C.3       4 UNK         0.0263 
     53 CB        -78.6612   19.9107  -73.8549 C.3       4 UNK        -0.1981 
     54 N         -79.4051   21.3115  -75.7128 N.am      4 UNK        -0.4224 
     55 C         -79.4981   21.7259  -76.9845 C.2       3 UNK         0.4895 
     56 O         -78.6510   21.4900  -77.8455 O.2       3 UNK        -0.5091 
     57 CA        -80.7347   22.5704  -77.3533 C.3       3 UNK         0.0250 
     58 CB        -81.8245   21.6845  -77.9780 C.3       3 UNK        -0.1996 
     59 N         -81.3038   23.3198  -76.2237 N.am      3 UNK        -0.4254 
     60 C         -80.6479   24.2621  -75.5323 C.2       2 UNK         0.5004 
     61 O         -79.4905   24.6030  -75.7861 O.2       2 UNK        -0.5226 
     62 CA        -81.3731   24.8441  -74.3070 C.3       2 UNK         0.0269 
     63 CB        -81.3693   23.8275  -73.1521 C.3       2 UNK        -0.1926 
     64 N         -80.7467   26.0801  -73.8350 N.am      2 UNK        -0.4687 
     65 C         -80.8319   27.2606  -74.4599 C.2       1 UNK         0.5165 
     66 O         -81.5172   27.4524  -75.4691 O.2       1 UNK        -0.5079 
     67 H67       -77.0960   30.3816  -76.5202 H         1 UNK         0.0900 
     68 H68       -78.7947   30.7198  -76.8479 H         1 UNK         0.0900 
     69 H69       -77.9870   29.4053  -77.6987 H         1 UNK         0.0900 
     70 H70       -79.9665   30.1389  -75.0591 H         1 UNK         0.2959 
     71 H71       -79.2233   28.0253  -73.2485 H         1 UNK         0.1079 
     72 H72       -80.4529   30.2227  -72.6454 H         1 UNK         0.0837 
     73 H73       -81.8788   29.5684  -73.3924 H         1 UNK         0.0837 
     74 H74       -80.2672   30.2406  -70.1520 H         1 UNK         0.0685 
     75 H75       -80.3624   28.7994  -69.1695 H         1 UNK         0.0685 
     76 H76       -79.0198   26.6877  -70.0858 H         1 UNK         0.1434 
     77 H77       -75.1526   27.7228  -71.6236 H         1 UNK         0.1329 
     78 H78       -78.1377   30.7564  -71.1162 H         1 UNK         0.1335 
     79 H79       -75.7603   31.3568  -71.3711 H         1 UNK         0.0680 
     80 H80       -74.5355   30.1302  -71.5719 H         1 UNK         0.0680 
     81 H81       -74.1386   32.4208  -72.8604 H         1 UNK         0.1032 
     82 H82       -74.9853   32.8747  -74.3069 H         1 UNK         0.1032 
     83 H83       -73.5240   31.4838  -75.6949 H         1 UNK         0.0461 
     84 H84       -70.3444   33.6120  -75.1247 H         1 UNK         0.3453 
     85 H85       -70.5251   31.8905  -74.8869 H         1 UNK         0.3453 
     86 H86       -72.3437   29.8093  -74.9852 H         1 UNK         0.2984 
     87 H87       -70.2373   29.0066  -72.7757 H         1 UNK         0.0554 
     88 H88       -71.3176   27.3354  -71.2458 H         1 UNK         0.0847 
     89 H89       -72.8388   28.2180  -71.3566 H         1 UNK         0.0847 
     90 H90       -71.4340   28.9671  -70.6138 H         1 UNK         0.0847 
     91 H91       -72.6933   27.7366  -73.9347 H         1 UNK         0.3141 
     92 H92       -70.9080   26.6895  -76.7608 H         1 UNK         0.0743 
     93 H93       -72.1447   24.8639  -74.6332 H         1 UNK         0.0784 
     94 H94       -71.8920   24.4565  -76.3305 H         1 UNK         0.0784 
     95 H95       -70.5142   24.7240  -75.2760 H         1 UNK         0.0784 
     96 H96       -73.6198   26.2783  -76.1629 H         1 UNK         0.3213 
     97 H97       -75.0615   29.0657  -76.2134 H         1 UNK         0.0855 
     98 H98       -74.2961   30.4229  -78.0905 H         1 UNK         0.0814 
     99 H99       -75.7906   29.6510  -78.5864 H         1 UNK         0.0814 
    100 H100      -74.2475   29.0365  -79.1651 H         1 UNK         0.0814 
    101 H101      -76.2944   27.2865  -76.5507 H         1 UNK         0.3105 
    102 H102      -77.3924   25.5880  -78.4388 H         1 UNK         0.0547 
    103 H103      -75.9126   24.2360  -79.9041 H         1 UNK         0.0837 
    104 H104      -75.0697   23.5880  -78.5029 H         1 UNK         0.0837 
    105 H105      -76.7642   23.1921  -78.7814 H         1 UNK         0.0837 
    106 H106      -77.7280   24.7442  -76.4056 H         1 UNK         0.3020 
    107 H107      -75.5836   23.5498  -73.8022 H         1 UNK         0.1245 
    108 H108      -77.8521   25.6010  -74.0243 H         1 UNK         0.0781 
    109 H109      -76.2707   25.9108  -73.3732 H         1 UNK         0.0781 
    110 H110      -75.5647   25.4598  -70.9670 H         1 UNK         0.0836 
    111 H111      -76.7799   25.2339  -69.7331 H         1 UNK         0.0836 
    112 H112      -78.3410   23.2272  -74.7997 H         1 UNK         0.3022 
    113 H113      -77.8607   19.9138  -75.8472 H         1 UNK         0.0747 
    114 H114      -79.4347   19.1712  -74.0634 H         1 UNK         0.0793 
    115 H115      -77.8177   19.3785  -73.4127 H         1 UNK         0.0793 
    116 H116      -79.0451   20.5970  -73.0988 H         1 UNK         0.0793 
    117 H117      -80.1652   21.5252  -75.0845 H         1 UNK         0.3047 
    118 H118      -80.4138   23.2983  -78.1019 H         1 UNK         0.0822 
    119 H119      -82.6664   22.2798  -78.3321 H         1 UNK         0.0807 
    120 H120      -82.2059   20.9500  -77.2675 H         1 UNK         0.0807 
    121 H121      -81.4358   21.1352  -78.8369 H         1 UNK         0.0807 
    122 H122      -82.2480   23.0816  -75.9542 H         1 UNK         0.2946 
    123 H123      -82.4056   25.0637  -74.5887 H         1 UNK         0.1144 
    124 H124      -81.8933   22.9113  -73.4268 H         1 UNK         0.0793 
    125 H125      -81.8706   24.2284  -72.2707 H         1 UNK         0.0793 
    126 H126      -80.3557   23.5491  -72.8606 H         1 UNK         0.0793 
    127 H127      -80.1582   26.0026  -73.0181 H         1 UNK         0.2896 
@<TRIPOS>BOND
     1    1    2 1    
     2    1   67 1    
     3    1   68 1    
     4    1   69 1    
     5    2    3 2    
     6    2    4 am   BACKBONE|DICT|INTERRES
     7    4    5 1    
     8    4   70 1    
     9    5    6 1    
    10    5   65 1    
    11    5   71 1    
    12    6    7 1    
    13    6   72 1    
    14    6   73 1    
    15    7    8 1    
    16    8    9 1    
    17    8   74 1    
    18    8   75 1    
    19    9   10 ar   
    20    9   14 ar   
    21   10   11 ar   
    22   10   76 1    
    23   11   12 ar   
    24   11   48 1    
    25   12   13 ar   
    26   12   77 1    
    27   13   14 ar   
    28   13   15 1    
    29   14   78 1    
    30   15   16 1    
    31   15   79 1    
    32   15   80 1    
    33   16   17 1    
    34   17   18 1    
    35   17   81 1    
    36   17   82 1    
    37   18   19 1    
    38   18   22 1    
    39   18   83 1    
    40   19   20 am   BACKBONE|DICT|INTERRES
    41   19   21 2    
    42   20   84 1    
    43   20   85 1    
    44   22   23 am   BACKBONE|DICT|INTERRES
    45   22   86 1    
    46   23   24 2    
    47   23   25 1    
    48   25   26 1    
    49   25   27 1    
    50   25   87 1    
    51   26   88 1    
    52   26   89 1    
    53   26   90 1    
    54   27   28 am   BACKBONE|DICT|INTERRES
    55   27   91 1    
    56   28   29 2    
    57   28   30 1    
    58   30   31 1    
    59   30   32 1    
    60   30   92 1    
    61   31   93 1    
    62   31   94 1    
    63   31   95 1    
    64   32   33 am   BACKBONE|DICT|INTERRES
    65   32   96 1    
    66   33   34 2    
    67   33   35 1    
    68   35   36 1    
    69   35   37 1    
    70   35   97 1    
    71   36   98 1    
    72   36   99 1    
    73   36  100 1    
    74   37   38 am   BACKBONE|DICT|INTERRES
    75   37  101 1    
    76   38   39 2    
    77   38   40 1    
    78   40   41 1    
    79   40   42 1    
    80   40  102 1    
    81   41  103 1    
    82   41  104 1    
    83   41  105 1    
    84   42   43 am   BACKBONE|DICT|INTERRES
    85   42  106 1    
    86   43   44 2    
    87   43   45 1    
    88   45   46 1    
    89   45   49 1    
    90   45  107 1    
    91   46   47 1    
    92   46  108 1    
    93   46  109 1    
    94   47   48 1    
    95   48  110 1    
    96   48  111 1    
    97   49   50 am   BACKBONE|DICT|INTERRES
    98   49  112 1    
    99   50   51 2    
   100   50   52 1    
   101   52   53 1    
   102   52   54 1    
   103   52  113 1    
   104   53  114 1    
   105   53  115 1    
   106   53  116 1    
   107   54   55 am   BACKBONE|DICT|INTERRES
   108   54  117 1    
   109   55   56 2    
   110   55   57 1    
   111   57   58 1    
   112   57   59 1    
   113   57  118 1    
   114   58  119 1    
   115   58  120 1    
   116   58  121 1    
   117   59   60 am   BACKBONE|DICT|INTERRES
   118   59  122 1    
   119   60   61 2    
   120   60   62 1    
   121   62   63 1    
   122   62   64 1    
   123   62  123 1    
   124   63  124 1    
   125   63  125 1    
   126   63  126 1    
   127   64   65 am   BACKBONE|DICT|INTERRES
   128   64  127 1    
   129   65   66 2    
@<TRIPOS>SUBSTRUCTURE
     1 UNK         1 GROUP             0       ****    0 ROOT    
