@<TRIPOS>MOLECULE
3R135
127   129    1
SMALL
USER_CHARGES


@<TRIPOS>ATOM
      1 CA        -83.8985   24.1041  -69.1425 C.3       0 UNK        -0.1998 
      2 C         -83.3801   25.4322  -69.6729 C.2       0 UNK         0.4909 
      3 O         -84.1288   26.4085  -69.7184 O.2       0 UNK        -0.5240 
      4 N         -82.1031   25.4765  -70.0749 N.am      1 UNK        -0.4739 
      5 CA        -81.4394   26.6614  -70.6362 C.3       1 UNK         0.0864 
      6 C6        -79.8955   26.5195  -70.5732 C.3       11 UNK        -0.0881 
      7 S7        -79.2371   25.1247  -71.5636 S.3       11 UNK        -0.2682 
      8 C8        -77.6289   25.7798  -72.1315 C.3       11 UNK         0.0289 
      9 C9        -77.7110   27.0645  -72.9544 C.ar      11 UNK        -0.0687 
     10 C10       -78.7573   27.2965  -73.8540 C.ar      11 UNK        -0.0823 
     11 C11       -78.7984   28.4655  -74.6207 C.ar      11 UNK        -0.0830 
     12 C12       -77.7789   29.4113  -74.4858 C.ar      11 UNK        -0.1021 
     13 C13       -76.7173   29.1839  -73.6064 C.ar      11 UNK        -0.0753 
     14 C14       -76.6940   28.0170  -72.8379 C.ar      11 UNK        -0.0933 
     15 C15       -75.5730   30.1782  -73.5207 C.3       11 UNK         0.0166 
     16 S16       -74.3027   29.7623  -74.7478 S.3       11 UNK        -0.2615 
     17 C17       -73.1739   31.1827  -74.5772 C.3       11 UNK        -0.0865 
     18 CA        -71.8464   30.9706  -75.3619 C.3       10 UNK         0.0862 
     19 C         -70.9835   32.2666  -75.4624 C.2       10 UNK         0.5551 
     20 N         -69.6634   32.1702  -75.5661 N.am      10 UNK        -0.7319 
     21 O         -71.5143   33.3747  -75.4813 O.2       10 UNK        -0.5018 
     22 N         -71.1147   29.7642  -74.9293 N.am      10 UNK        -0.4509 
     23 C         -70.5367   29.5867  -73.7327 C.2       10 UNK         0.4899 
     24 O         -70.5286   30.4363  -72.8396 O.2       10 UNK        -0.4839 
     25 CA        -69.8452   28.2282  -73.5080 C.3       9 UNK         0.0222 
     26 CB        -69.1970   28.1058  -72.1122 C.3       9 UNK        -0.1966 
     27 N         -70.7296   27.0862  -73.7630 N.am      9 UNK        -0.4218 
     28 C         -71.9042   26.7987  -73.1830 C.2       9 UNK         0.5020 
     29 O         -72.4331   27.4963  -72.3156 O.2       9 UNK        -0.5274 
     30 CA        -72.5863   25.4891  -73.6390 C.3       8 UNK         0.0270 
     31 CB        -73.9644   25.2814  -72.9848 C.3       8 UNK        -0.1976 
     32 N         -72.7317   25.3895  -75.0962 N.am      8 UNK        -0.4313 
     33 C         -71.7407   25.1379  -75.9629 C.2       8 UNK         0.5041 
     34 O         -70.5743   24.9381  -75.6187 O.2       8 UNK        -0.5577 
     35 CA        -72.0841   25.1633  -77.4608 C.3       7 UNK         0.0284 
     36 CB        -72.6938   23.8260  -77.9086 C.3       7 UNK        -0.1958 
     37 N         -72.9821   26.2576  -77.8311 N.am      7 UNK        -0.4454 
     38 C         -72.7167   27.5655  -77.7179 C.2       7 UNK         0.5089 
     39 O         -71.6562   28.0153  -77.2799 O.2       7 UNK        -0.5125 
     40 CA        -73.8275   28.5430  -78.1480 C.3       6 UNK         0.0408 
     41 CB        -73.8143   28.7798  -79.6705 C.3       6 UNK        -0.1791 
     42 N         -75.1613   28.1760  -77.6478 N.am      6 UNK        -0.4762 
     43 C         -75.9337   27.1405  -78.0063 C.2       6 UNK         0.5007 
     44 O         -75.6620   26.3659  -78.9273 O.2       6 UNK        -0.5032 
     45 CA        -77.1984   26.9051  -77.1583 C.3       5 UNK         0.0783 
     46 C46       -78.4274   27.6076  -77.7910 C.3       11 UNK        -0.0857 
     47 S47       -79.9832   27.3485  -76.8684 S.3       11 UNK        -0.2512 
     48 C48       -79.9187   28.6830  -75.6273 C.3       11 UNK         0.0225 
     49 N         -77.4210   25.4779  -76.9080 N.am      5 UNK        -0.4615 
     50 C         -76.5731   24.6746  -76.2555 C.2       4 UNK         0.5053 
     51 O         -75.5017   25.0612  -75.7849 O.2       4 UNK        -0.5105 
     52 CA        -76.9950   23.2004  -76.1010 C.3       4 UNK         0.0263 
     53 CB        -75.9210   22.3490  -75.3968 C.3       4 UNK        -0.1981 
     54 N         -78.2567   23.0450  -75.3725 N.am      4 UNK        -0.4224 
     55 C         -79.4842   23.2527  -75.8673 C.2       3 UNK         0.4895 
     56 O         -79.6945   23.6675  -77.0078 O.2       3 UNK        -0.5091 
     57 CA        -80.6750   22.9210  -74.9515 C.3       3 UNK         0.0250 
     58 CB        -80.3176   21.9922  -73.7714 C.3       3 UNK        -0.1996 
     59 N         -81.2624   24.1500  -74.4236 N.am      3 UNK        -0.4254 
     60 C         -82.3044   24.8051  -74.9569 C.2       2 UNK         0.5004 
     61 O         -82.8913   24.4412  -75.9771 O.2       2 UNK        -0.5226 
     62 CA        -82.8020   26.0513  -74.1993 C.3       2 UNK         0.0269 
     63 CB        -84.3282   26.2360  -74.2995 C.3       2 UNK        -0.1926 
     64 N         -82.4138   25.9916  -72.7889 N.am      2 UNK        -0.4687 
     65 C         -81.9222   27.0049  -72.0646 C.2       1 UNK         0.5165 
     66 O         -81.8221   28.1589  -72.4817 O.2       1 UNK        -0.5079 
     67 H67       -84.7390   23.7616  -69.7456 H         1 UNK         0.0900 
     68 H68       -83.1312   23.3303  -69.1597 H         1 UNK         0.0900 
     69 H69       -84.2410   24.2188  -68.1145 H         1 UNK         0.0900 
     70 H70       -81.5260   24.6493  -70.0071 H         1 UNK         0.2959 
     71 H71       -81.7134   27.5147  -70.0113 H         1 UNK         0.1079 
     72 H72       -79.5815   26.3759  -69.5382 H         1 UNK         0.0837 
     73 H73       -79.4281   27.4540  -70.8881 H         1 UNK         0.0837 
     74 H74       -76.9968   25.9327  -71.2553 H         1 UNK         0.0685 
     75 H75       -77.1382   25.0167  -72.7371 H         1 UNK         0.0685 
     76 H76       -79.5359   26.5592  -73.9791 H         1 UNK         0.1434 
     77 H77       -77.7914   30.3103  -75.0872 H         1 UNK         0.1329 
     78 H78       -75.8648   27.8418  -72.1657 H         1 UNK         0.1335 
     79 H79       -75.1324   30.1701  -72.5224 H         1 UNK         0.0680 
     80 H80       -75.9386   31.1911  -73.6966 H         1 UNK         0.0680 
     81 H81       -72.9719   31.3613  -73.5199 H         1 UNK         0.1032 
     82 H82       -73.7024   32.0654  -74.9414 H         1 UNK         0.1032 
     83 H83       -72.1213   30.7719  -76.3973 H         1 UNK         0.0461 
     84 H84       -69.2178   31.2669  -75.5653 H         1 UNK         0.3453 
     85 H85       -69.1096   33.0089  -75.6417 H         1 UNK         0.3453 
     86 H86       -71.0920   29.0120  -75.6107 H         1 UNK         0.2984 
     87 H87       -69.0454   28.1654  -74.2473 H         1 UNK         0.0554 
     88 H88       -68.4668   28.8995  -71.9494 H         1 UNK         0.0847 
     89 H89       -68.6729   27.1569  -71.9993 H         1 UNK         0.0847 
     90 H90       -69.9372   28.1769  -71.3144 H         1 UNK         0.0847 
     91 H91       -70.4155   26.4276  -74.4738 H         1 UNK         0.3141 
     92 H92       -71.9429   24.6721  -73.3059 H         1 UNK         0.0743 
     93 H93       -74.6729   26.0432  -73.3091 H         1 UNK         0.0784 
     94 H94       -74.3809   24.3082  -73.2415 H         1 UNK         0.0784 
     95 H95       -73.9016   25.3281  -71.8969 H         1 UNK         0.0784 
     96 H96       -73.6777   25.4985  -75.4576 H         1 UNK         0.3213 
     97 H97       -71.1490   25.3097  -78.0057 H         1 UNK         0.0855 
     98 H98       -73.6736   23.6609  -77.4611 H         1 UNK         0.0814 
     99 H99       -72.0561   22.9883  -77.6228 H         1 UNK         0.0814 
    100 H100      -72.8117   23.7882  -78.9916 H         1 UNK         0.0814 
    101 H101      -73.8922   26.0060  -78.2058 H         1 UNK         0.3105 
    102 H102      -73.6008   29.5007  -77.6802 H         1 UNK         0.0547 
    103 H103      -72.8523   29.1837  -79.9883 H         1 UNK         0.0837 
    104 H104      -73.9763   27.8611  -80.2345 H         1 UNK         0.0837 
    105 H105      -74.5801   29.4961  -79.9675 H         1 UNK         0.0837 
    106 H106      -75.4540   28.7211  -76.8465 H         1 UNK         0.3020 
    107 H107      -77.0032   27.3462  -76.1817 H         1 UNK         0.1245 
    108 H108      -78.2506   28.6810  -77.8829 H         1 UNK         0.0781 
    109 H109      -78.5870   27.2407  -78.8068 H         1 UNK         0.0781 
    110 H110      -80.8684   28.7273  -75.0939 H         1 UNK         0.0836 
    111 H111      -79.8118   29.6419  -76.1368 H         1 UNK         0.0836 
    112 H112      -78.2991   25.0867  -77.2330 H         1 UNK         0.3022 
    113 H113      -77.1242   22.8011  -77.1092 H         1 UNK         0.0747 
    114 H114      -76.2022   21.2961  -75.3746 H         1 UNK         0.0793 
    115 H115      -74.9631   22.4128  -75.9129 H         1 UNK         0.0793 
    116 H116      -75.7594   22.6739  -74.3687 H         1 UNK         0.0793 
    117 H117      -78.1805   22.7276  -74.4175 H         1 UNK         0.3047 
    118 H118      -81.4081   22.3959  -75.5679 H         1 UNK         0.0822 
    119 H119      -81.2137   21.7042  -73.2212 H         1 UNK         0.0807 
    120 H120      -79.6373   22.4608  -73.0598 H         1 UNK         0.0807 
    121 H121      -79.8530   21.0693  -74.1220 H         1 UNK         0.0807 
    122 H122      -80.8167   24.5427  -73.6064 H         1 UNK         0.2946 
    123 H123      -82.3213   26.9056  -74.6789 H         1 UNK         0.1144 
    124 H124      -84.6456   26.3422  -75.3376 H         1 UNK         0.0793 
    125 H125      -84.6531   27.1325  -73.7712 H         1 UNK         0.0793 
    126 H126      -84.8637   25.3852  -73.8768 H         1 UNK         0.0793 
    127 H127      -82.4863   25.0873  -72.3431 H         1 UNK         0.2896 
@<TRIPOS>BOND
     1    1    2 1    
     2    1   67 1    
     3    1   68 1    
     4    1   69 1    
     5    2    3 2    
     6    2    4 am   BACKBONE|DICT|INTERRES
     7    4    5 1    
     8    4   70 1    
     9    5    6 1    
    10    5   65 1    
    11    5   71 1    
    12    6    7 1    
    13    6   72 1    
    14    6   73 1    
    15    7    8 1    
    16    8    9 1    
    17    8   74 1    
    18    8   75 1    
    19    9   10 ar   
    20    9   14 ar   
    21   10   11 ar   
    22   10   76 1    
    23   11   12 ar   
    24   11   48 1    
    25   12   13 ar   
    26   12   77 1    
    27   13   14 ar   
    28   13   15 1    
    29   14   78 1    
    30   15   16 1    
    31   15   79 1    
    32   15   80 1    
    33   16   17 1    
    34   17   18 1    
    35   17   81 1    
    36   17   82 1    
    37   18   19 1    
    38   18   22 1    
    39   18   83 1    
    40   19   20 am   BACKBONE|DICT|INTERRES
    41   19   21 2    
    42   20   84 1    
    43   20   85 1    
    44   22   23 am   BACKBONE|DICT|INTERRES
    45   22   86 1    
    46   23   24 2    
    47   23   25 1    
    48   25   26 1    
    49   25   27 1    
    50   25   87 1    
    51   26   88 1    
    52   26   89 1    
    53   26   90 1    
    54   27   28 am   BACKBONE|DICT|INTERRES
    55   27   91 1    
    56   28   29 2    
    57   28   30 1    
    58   30   31 1    
    59   30   32 1    
    60   30   92 1    
    61   31   93 1    
    62   31   94 1    
    63   31   95 1    
    64   32   33 am   BACKBONE|DICT|INTERRES
    65   32   96 1    
    66   33   34 2    
    67   33   35 1    
    68   35   36 1    
    69   35   37 1    
    70   35   97 1    
    71   36   98 1    
    72   36   99 1    
    73   36  100 1    
    74   37   38 am   BACKBONE|DICT|INTERRES
    75   37  101 1    
    76   38   39 2    
    77   38   40 1    
    78   40   41 1    
    79   40   42 1    
    80   40  102 1    
    81   41  103 1    
    82   41  104 1    
    83   41  105 1    
    84   42   43 am   BACKBONE|DICT|INTERRES
    85   42  106 1    
    86   43   44 2    
    87   43   45 1    
    88   45   46 1    
    89   45   49 1    
    90   45  107 1    
    91   46   47 1    
    92   46  108 1    
    93   46  109 1    
    94   47   48 1    
    95   48  110 1    
    96   48  111 1    
    97   49   50 am   BACKBONE|DICT|INTERRES
    98   49  112 1    
    99   50   51 2    
   100   50   52 1    
   101   52   53 1    
   102   52   54 1    
   103   52  113 1    
   104   53  114 1    
   105   53  115 1    
   106   53  116 1    
   107   54   55 am   BACKBONE|DICT|INTERRES
   108   54  117 1    
   109   55   56 2    
   110   55   57 1    
   111   57   58 1    
   112   57   59 1    
   113   57  118 1    
   114   58  119 1    
   115   58  120 1    
   116   58  121 1    
   117   59   60 am   BACKBONE|DICT|INTERRES
   118   59  122 1    
   119   60   61 2    
   120   60   62 1    
   121   62   63 1    
   122   62   64 1    
   123   62  123 1    
   124   63  124 1    
   125   63  125 1    
   126   63  126 1    
   127   64   65 am   BACKBONE|DICT|INTERRES
   128   64  127 1    
   129   65   66 2    
@<TRIPOS>SUBSTRUCTURE
     1 UNK         1 GROUP             0       ****    0 ROOT    
