@<TRIPOS>MOLECULE
3R135
127   129    1
SMALL
USER_CHARGES


@<TRIPOS>ATOM
      1 CA        -83.7355   23.5809  -73.6653 C.3       0 UNK        -0.1998 
      2 C         -83.1790   24.9609  -73.9803 C.2       0 UNK         0.4909 
      3 O         -83.0532   25.3183  -75.1521 O.2       0 UNK        -0.5240 
      4 N         -82.8410   25.7422  -72.9457 N.am      1 UNK        -0.4739 
      5 CA        -82.1952   27.0523  -73.0766 C.3       1 UNK         0.0864 
      6 C6        -82.2106   27.8238  -71.7351 C.3       11 UNK        -0.0881 
      7 S7        -81.8961   29.6114  -71.9453 S.3       11 UNK        -0.2682 
      8 C8        -80.5102   29.9004  -70.7984 C.3       11 UNK         0.0289 
      9 C9        -79.1651   29.4860  -71.3812 C.ar      11 UNK        -0.0687 
     10 C10       -78.6476   28.2113  -71.1325 C.ar      11 UNK        -0.0823 
     11 C11       -77.3924   27.8371  -71.6208 C.ar      11 UNK        -0.0830 
     12 C12       -76.6445   28.7777  -72.3377 C.ar      11 UNK        -0.1021 
     13 C13       -77.1578   30.0441  -72.6354 C.ar      11 UNK        -0.0753 
     14 C14       -78.4208   30.3909  -72.1452 C.ar      11 UNK        -0.0933 
     15 C15       -76.3704   31.0612  -73.4642 C.3       11 UNK         0.0166 
     16 S16       -75.0975   30.3358  -74.5682 S.3       11 UNK        -0.2615 
     17 C17       -73.5761   31.1696  -73.9874 C.3       11 UNK        -0.0865 
     18 CA        -72.7343   30.3656  -72.9577 C.3       10 UNK         0.0862 
     19 C         -73.3746   30.3370  -71.5372 C.2       10 UNK         0.5551 
     20 N         -73.5829   29.1816  -70.9198 N.am      10 UNK        -0.7319 
     21 O         -73.6668   31.3908  -70.9774 O.2       10 UNK        -0.5018 
     22 N         -72.2895   29.0716  -73.5041 N.am      10 UNK        -0.4509 
     23 C         -71.2384   28.3678  -73.0585 C.2       10 UNK         0.4899 
     24 O         -70.5615   28.6944  -72.0834 O.2       10 UNK        -0.4839 
     25 CA        -70.8435   27.1000  -73.8404 C.3       9 UNK         0.0222 
     26 CB        -71.2510   25.8231  -73.0870 C.3       9 UNK        -0.1966 
     27 N         -71.3581   27.0641  -75.2156 N.am      9 UNK        -0.4218 
     28 C         -70.8668   27.8256  -76.2070 C.2       9 UNK         0.5020 
     29 O         -69.9653   28.6503  -76.0510 O.2       9 UNK        -0.5274 
     30 CA        -71.4649   27.6459  -77.6059 C.3       8 UNK         0.0270 
     31 CB        -70.8786   26.3959  -78.2842 C.3       8 UNK        -0.1976 
     32 N         -72.9216   27.5291  -77.5667 N.am      8 UNK        -0.4313 
     33 C         -73.7784   28.3308  -78.2158 C.2       8 UNK         0.5041 
     34 O         -73.4345   29.3506  -78.8169 O.2       8 UNK        -0.5577 
     35 CA        -75.2687   27.9178  -78.2133 C.3       7 UNK         0.0284 
     36 CB        -76.0192   28.3779  -79.4797 C.3       7 UNK        -0.1958 
     37 N         -75.4834   26.4838  -77.9822 N.am      7 UNK        -0.4454 
     38 C         -74.9742   25.4471  -78.6679 C.2       7 UNK         0.5089 
     39 O         -74.3732   25.5623  -79.7368 O.2       7 UNK        -0.5125 
     40 CA        -75.1085   24.0517  -78.0180 C.3       6 UNK         0.0408 
     41 CB        -73.9018   23.1460  -78.3395 C.3       6 UNK        -0.1791 
     42 N         -75.3418   24.0837  -76.5658 N.am      6 UNK        -0.4762 
     43 C         -74.5837   24.6572  -75.6124 C.2       6 UNK         0.5007 
     44 O         -73.5160   25.2304  -75.8507 O.2       6 UNK        -0.5032 
     45 CA        -75.1312   24.6565  -74.1657 C.3       5 UNK         0.0783 
     46 C46       -75.0888   26.0801  -73.5564 C.3       11 UNK        -0.0857 
     47 S47       -75.1552   26.0486  -71.7319 S.3       11 UNK        -0.2512 
     48 C48       -76.9159   26.4014  -71.3793 C.3       11 UNK         0.0225 
     49 N         -76.5061   24.1561  -74.1361 N.am      5 UNK        -0.4615 
     50 C         -76.9140   22.9501  -73.7294 C.2       4 UNK         0.5053 
     51 O         -76.1650   22.0928  -73.2624 O.2       4 UNK        -0.5105 
     52 CA        -78.4162   22.6419  -73.8955 C.3       4 UNK         0.0263 
     53 CB        -79.1450   22.7515  -72.5465 C.3       4 UNK        -0.1981 
     54 N         -79.0750   23.5143  -74.8774 N.am      4 UNK        -0.4224 
     55 C         -78.8718   23.4379  -76.2033 C.2       3 UNK         0.4895 
     56 O         -78.1587   22.5842  -76.7299 O.2       3 UNK        -0.5091 
     57 CA        -79.5052   24.5234  -77.0933 C.3       3 UNK         0.0250 
     58 CB        -80.8568   24.0449  -77.6445 C.3       3 UNK        -0.1996 
     59 N         -79.6754   25.8143  -76.4204 N.am      3 UNK        -0.4254 
     60 C         -78.6717   26.5627  -75.9378 C.2       2 UNK         0.5004 
     61 O         -77.4858   26.2555  -76.0437 O.2       2 UNK        -0.5226 
     62 CA        -79.0373   27.8314  -75.1517 C.3       2 UNK         0.0269 
     63 CB        -78.9101   29.0791  -76.0379 C.3       2 UNK        -0.1926 
     64 N         -80.3650   27.7993  -74.5312 N.am      2 UNK        -0.4687 
     65 C         -80.7663   26.8897  -73.6322 C.2       1 UNK         0.5165 
     66 O         -80.0674   25.9451  -73.2539 O.2       1 UNK        -0.5079 
     67 H67       -84.7318   23.4716  -74.0927 H         1 UNK         0.0900 
     68 H68       -83.8048   23.4043  -72.5922 H         1 UNK         0.0900 
     69 H69       -83.0933   22.8125  -74.0950 H         1 UNK         0.0900 
     70 H70       -82.9367   25.3889  -72.0044 H         1 UNK         0.2959 
     71 H71       -82.7824   27.6197  -73.8028 H         1 UNK         0.1079 
     72 H72       -83.1953   27.7358  -71.2732 H         1 UNK         0.0837 
     73 H73       -81.5128   27.3844  -71.0212 H         1 UNK         0.0837 
     74 H74       -80.4840   30.9630  -70.5522 H         1 UNK         0.0685 
     75 H75       -80.6962   29.3824  -69.8562 H         1 UNK         0.0685 
     76 H76       -79.2266   27.5007  -70.5596 H         1 UNK         0.1434 
     77 H77       -75.6584   28.5244  -72.6865 H         1 UNK         0.1329 
     78 H78       -78.8235   31.3737  -72.3490 H         1 UNK         0.1335 
     79 H79       -77.0609   31.6304  -74.0884 H         1 UNK         0.0680 
     80 H80       -75.9183   31.7773  -72.7778 H         1 UNK         0.0680 
     81 H81       -73.8160   32.1622  -73.6021 H         1 UNK         0.1032 
     82 H82       -72.9615   31.3588  -74.8689 H         1 UNK         0.1032 
     83 H83       -71.8211   30.9473  -72.8158 H         1 UNK         0.0461 
     84 H84       -73.9970   29.1814  -70.0020 H         1 UNK         0.3453 
     85 H85       -73.3398   28.3120  -71.3646 H         1 UNK         0.3453 
     86 H86       -72.7987   28.7331  -74.3061 H         1 UNK         0.2984 
     87 H87       -69.7528   27.0983  -73.8997 H         1 UNK         0.0554 
     88 H88       -72.3256   25.7504  -72.9409 H         1 UNK         0.0847 
     89 H89       -70.7924   25.7958  -72.0976 H         1 UNK         0.0847 
     90 H90       -70.9245   24.9282  -73.6169 H         1 UNK         0.0847 
     91 H91       -72.0822   26.3805  -75.4220 H         1 UNK         0.3141 
     92 H92       -71.1695   28.5161  -78.1960 H         1 UNK         0.0743 
     93 H93       -71.1334   25.4833  -77.7437 H         1 UNK         0.0784 
     94 H94       -71.2497   26.2915  -79.3042 H         1 UNK         0.0784 
     95 H95       -69.7905   26.4530  -78.3382 H         1 UNK         0.0784 
     96 H96       -73.2955   26.7163  -77.0855 H         1 UNK         0.3213 
     97 H97       -75.7146   28.4291  -77.3589 H         1 UNK         0.0855 
     98 H98       -75.9802   29.4625  -79.5871 H         1 UNK         0.0814 
     99 H99       -77.0713   28.0959  -79.4398 H         1 UNK         0.0814 
    100 H100      -75.5882   27.9450  -80.3828 H         1 UNK         0.0814 
    101 H101      -76.0421   26.2666  -77.1574 H         1 UNK         0.3105 
    102 H102      -75.9963   23.5962  -78.4587 H         1 UNK         0.0547 
    103 H103      -73.7966   22.9969  -79.4147 H         1 UNK         0.0837 
    104 H104      -72.9669   23.5756  -77.9784 H         1 UNK         0.0837 
    105 H105      -74.0144   22.1603  -77.8887 H         1 UNK         0.0837 
    106 H106      -76.2086   23.6517  -76.2707 H         1 UNK         0.3020 
    107 H107      -74.4740   23.9991  -73.5920 H         1 UNK         0.1245 
    108 H108      -75.9044   26.6830  -73.9564 H         1 UNK         0.0781 
    109 H109      -74.1812   26.6192  -73.8263 H         1 UNK         0.0781 
    110 H110      -77.0969   26.1450  -70.3346 H         1 UNK         0.0836 
    111 H111      -77.5353   25.7263  -71.9703 H         1 UNK         0.0836 
    112 H112      -77.1908   24.7853  -74.5370 H         1 UNK         0.3022 
    113 H113      -78.5018   21.6105  -74.2446 H         1 UNK         0.0747 
    114 H114      -80.2035   22.5098  -72.6452 H         1 UNK         0.0793 
    115 H115      -78.7207   22.0594  -71.8179 H         1 UNK         0.0793 
    116 H116      -79.0682   23.7534  -72.1240 H         1 UNK         0.0793 
    117 H117      -79.6324   24.2759  -74.5041 H         1 UNK         0.3047 
    118 H118      -78.8307   24.6841  -77.9373 H         1 UNK         0.0822 
    119 H119      -81.2955   24.7803  -78.3192 H         1 UNK         0.0807 
    120 H120      -81.5733   23.8512  -76.8458 H         1 UNK         0.0807 
    121 H121      -80.7411   23.1180  -78.2081 H         1 UNK         0.0807 
    122 H122      -80.6243   26.1254  -76.2633 H         1 UNK         0.2946 
    123 H123      -78.3081   27.9133  -74.3456 H         1 UNK         0.1144 
    124 H124      -77.9155   29.1427  -76.4811 H         1 UNK         0.0793 
    125 H125      -79.0592   29.9908  -75.4589 H         1 UNK         0.0793 
    126 H126      -79.6335   29.0724  -76.8540 H         1 UNK         0.0793 
    127 H127      -80.9937   28.5513  -74.7749 H         1 UNK         0.2896 
@<TRIPOS>BOND
     1    1    2 1    
     2    1   67 1    
     3    1   68 1    
     4    1   69 1    
     5    2    3 2    
     6    2    4 am   BACKBONE|DICT|INTERRES
     7    4    5 1    
     8    4   70 1    
     9    5    6 1    
    10    5   65 1    
    11    5   71 1    
    12    6    7 1    
    13    6   72 1    
    14    6   73 1    
    15    7    8 1    
    16    8    9 1    
    17    8   74 1    
    18    8   75 1    
    19    9   10 ar   
    20    9   14 ar   
    21   10   11 ar   
    22   10   76 1    
    23   11   12 ar   
    24   11   48 1    
    25   12   13 ar   
    26   12   77 1    
    27   13   14 ar   
    28   13   15 1    
    29   14   78 1    
    30   15   16 1    
    31   15   79 1    
    32   15   80 1    
    33   16   17 1    
    34   17   18 1    
    35   17   81 1    
    36   17   82 1    
    37   18   19 1    
    38   18   22 1    
    39   18   83 1    
    40   19   20 am   BACKBONE|DICT|INTERRES
    41   19   21 2    
    42   20   84 1    
    43   20   85 1    
    44   22   23 am   BACKBONE|DICT|INTERRES
    45   22   86 1    
    46   23   24 2    
    47   23   25 1    
    48   25   26 1    
    49   25   27 1    
    50   25   87 1    
    51   26   88 1    
    52   26   89 1    
    53   26   90 1    
    54   27   28 am   BACKBONE|DICT|INTERRES
    55   27   91 1    
    56   28   29 2    
    57   28   30 1    
    58   30   31 1    
    59   30   32 1    
    60   30   92 1    
    61   31   93 1    
    62   31   94 1    
    63   31   95 1    
    64   32   33 am   BACKBONE|DICT|INTERRES
    65   32   96 1    
    66   33   34 2    
    67   33   35 1    
    68   35   36 1    
    69   35   37 1    
    70   35   97 1    
    71   36   98 1    
    72   36   99 1    
    73   36  100 1    
    74   37   38 am   BACKBONE|DICT|INTERRES
    75   37  101 1    
    76   38   39 2    
    77   38   40 1    
    78   40   41 1    
    79   40   42 1    
    80   40  102 1    
    81   41  103 1    
    82   41  104 1    
    83   41  105 1    
    84   42   43 am   BACKBONE|DICT|INTERRES
    85   42  106 1    
    86   43   44 2    
    87   43   45 1    
    88   45   46 1    
    89   45   49 1    
    90   45  107 1    
    91   46   47 1    
    92   46  108 1    
    93   46  109 1    
    94   47   48 1    
    95   48  110 1    
    96   48  111 1    
    97   49   50 am   BACKBONE|DICT|INTERRES
    98   49  112 1    
    99   50   51 2    
   100   50   52 1    
   101   52   53 1    
   102   52   54 1    
   103   52  113 1    
   104   53  114 1    
   105   53  115 1    
   106   53  116 1    
   107   54   55 am   BACKBONE|DICT|INTERRES
   108   54  117 1    
   109   55   56 2    
   110   55   57 1    
   111   57   58 1    
   112   57   59 1    
   113   57  118 1    
   114   58  119 1    
   115   58  120 1    
   116   58  121 1    
   117   59   60 am   BACKBONE|DICT|INTERRES
   118   59  122 1    
   119   60   61 2    
   120   60   62 1    
   121   62   63 1    
   122   62   64 1    
   123   62  123 1    
   124   63  124 1    
   125   63  125 1    
   126   63  126 1    
   127   64   65 am   BACKBONE|DICT|INTERRES
   128   64  127 1    
   129   65   66 2    
@<TRIPOS>SUBSTRUCTURE
     1 UNK         1 GROUP             0       ****    0 ROOT    
