@<TRIPOS>MOLECULE
3R135
127   129    1
SMALL
USER_CHARGES


@<TRIPOS>ATOM
      1 CA        -81.8529   29.0833  -70.5120 C.3       0 UNK        -0.1998 
      2 C         -80.4821   28.8332  -71.1359 C.2       0 UNK         0.4909 
      3 O         -79.4740   29.0491  -70.4680 O.2       0 UNK        -0.5240 
      4 N         -80.3874   28.3881  -72.3984 N.am      1 UNK        -0.4739 
      5 CA        -81.4939   28.0542  -73.3110 C.3       1 UNK         0.0864 
      6 C6        -81.0283   27.9360  -74.7834 C.3       11 UNK        -0.0881 
      7 S7        -80.2156   29.4457  -75.4066 S.3       11 UNK        -0.2682 
      8 C8        -78.5347   28.8350  -75.7503 C.3       11 UNK         0.0289 
      9 C9        -77.7870   28.4857  -74.4729 C.ar      11 UNK        -0.0687 
     10 C10       -77.5927   27.1502  -74.1057 C.ar      11 UNK        -0.0823 
     11 C11       -76.9095   26.8242  -72.9251 C.ar      11 UNK        -0.0830 
     12 C12       -76.4131   27.8591  -72.1270 C.ar      11 UNK        -0.1021 
     13 C13       -76.6022   29.1967  -72.4822 C.ar      11 UNK        -0.0753 
     14 C14       -77.2928   29.5047  -73.6560 C.ar      11 UNK        -0.0933 
     15 C15       -76.0761   30.3034  -71.5816 C.3       11 UNK         0.0166 
     16 S16       -74.3225   30.6648  -71.9103 S.3       11 UNK        -0.2615 
     17 C17       -74.4199   31.5736  -73.4915 C.3       11 UNK        -0.0865 
     18 CA        -74.0398   30.7092  -74.7314 C.3       10 UNK         0.0862 
     19 C         -74.2863   31.4482  -76.0817 C.2       10 UNK         0.5551 
     20 N         -73.7185   30.9792  -77.1848 N.am      10 UNK        -0.7319 
     21 O         -75.0059   32.4426  -76.1414 O.2       10 UNK        -0.5018 
     22 N         -72.7052   30.0909  -74.6306 N.am      10 UNK        -0.4509 
     23 C         -71.5348   30.7365  -74.5462 C.2       10 UNK         0.4899 
     24 O         -71.4358   31.9646  -74.5390 O.2       10 UNK        -0.4839 
     25 CA        -70.2396   29.8972  -74.4860 C.3       9 UNK         0.0222 
     26 CB        -69.3395   30.3287  -73.3090 C.3       9 UNK        -0.1966 
     27 N         -70.4187   28.4373  -74.5009 N.am      9 UNK        -0.4218 
     28 C         -70.9714   27.6418  -73.5733 C.2       9 UNK         0.5020 
     29 O         -71.4500   28.0542  -72.5166 O.2       9 UNK        -0.5274 
     30 CA        -71.0053   26.1306  -73.8963 C.3       8 UNK         0.0270 
     31 CB        -71.8454   25.3299  -72.8826 C.3       8 UNK        -0.1976 
     32 N         -71.5057   25.8569  -75.2485 N.am      8 UNK        -0.4313 
     33 C         -70.8051   26.0094  -76.3836 C.2       8 UNK         0.5041 
     34 O         -69.6262   26.3661  -76.4011 O.2       8 UNK        -0.5577 
     35 CA        -71.5370   25.7942  -77.7232 C.3       7 UNK         0.0284 
     36 CB        -71.2887   24.3709  -78.2472 C.3       7 UNK        -0.1958 
     37 N         -72.9793   26.0377  -77.6520 N.am      7 UNK        -0.4454 
     38 C         -73.5536   27.1961  -77.2984 C.2       7 UNK         0.5089 
     39 O         -72.9249   28.2382  -77.1149 O.2       7 UNK        -0.5125 
     40 CA        -75.0774   27.1866  -77.0650 C.3       6 UNK         0.0408 
     41 CB        -75.7944   27.8338  -78.2600 C.3       6 UNK        -0.1791 
     42 N         -75.6673   25.8635  -76.8079 N.am      6 UNK        -0.4762 
     43 C         -75.3094   24.9999  -75.8421 C.2       6 UNK         0.5007 
     44 O         -74.3637   25.1989  -75.0787 O.2       6 UNK        -0.5032 
     45 CA        -76.1074   23.6834  -75.7341 C.3       5 UNK         0.0783 
     46 C46       -76.3141   23.2151  -74.2672 C.3       11 UNK        -0.0857 
     47 S47       -77.6217   24.0976  -73.3380 S.3       11 UNK        -0.2512 
     48 C48       -76.6722   25.3862  -72.4571 C.3       11 UNK         0.0225 
     49 N         -77.3763   23.7451  -76.4629 N.am      5 UNK        -0.4615 
     50 C         -77.6372   23.2373  -77.6707 C.2       4 UNK         0.5053 
     51 O         -76.7839   22.7015  -78.3786 O.2       4 UNK        -0.5105 
     52 CA        -79.1053   23.3363  -78.1486 C.3       4 UNK         0.0263 
     53 CB        -79.3545   22.5648  -79.4580 C.3       4 UNK        -0.1981 
     54 N         -80.0549   22.8665  -77.1295 N.am      4 UNK        -0.4224 
     55 C         -80.3956   23.5425  -76.0242 C.2       3 UNK         0.4895 
     56 O         -80.0024   24.6898  -75.7910 O.2       3 UNK        -0.5091 
     57 CA        -81.2437   22.8005  -74.9807 C.3       3 UNK         0.0250 
     58 CB        -80.6018   21.4545  -74.5787 C.3       3 UNK        -0.1996 
     59 N         -81.3580   23.6662  -73.8116 N.am      3 UNK        -0.4254 
     60 C         -82.2172   23.5491  -72.7950 C.2       2 UNK         0.5004 
     61 O         -83.0665   22.6613  -72.7090 O.2       2 UNK        -0.5226 
     62 CA        -82.1072   24.6028  -71.6776 C.3       2 UNK         0.0269 
     63 CB        -81.2273   24.0764  -70.5322 C.3       2 UNK        -0.1926 
     64 N         -81.5668   25.8858  -72.1400 N.am      2 UNK        -0.4687 
     65 C         -82.2353   26.7630  -72.9034 C.2       1 UNK         0.5165 
     66 O         -83.3953   26.5908  -73.2782 O.2       1 UNK        -0.5079 
     67 H67       -81.7450   29.6017  -69.5593 H         1 UNK         0.0900 
     68 H68       -82.3703   28.1446  -70.3179 H         1 UNK         0.0900 
     69 H69       -82.4758   29.7078  -71.1509 H         1 UNK         0.0900 
     70 H70       -79.4617   28.2811  -72.7936 H         1 UNK         0.2959 
     71 H71       -82.2237   28.8645  -73.2706 H         1 UNK         0.1079 
     72 H72       -80.3585   27.0850  -74.9040 H         1 UNK         0.0837 
     73 H73       -81.8802   27.7354  -75.4365 H         1 UNK         0.0837 
     74 H74       -77.9819   29.6029  -76.2937 H         1 UNK         0.0685 
     75 H75       -78.5952   27.9714  -76.4143 H         1 UNK         0.0685 
     76 H76       -77.9801   26.3731  -74.7479 H         1 UNK         0.1434 
     77 H77       -75.8789   27.6247  -71.2162 H         1 UNK         0.1329 
     78 H78       -77.4514   30.5374  -73.9345 H         1 UNK         0.1335 
     79 H79       -76.6726   31.2102  -71.6928 H         1 UNK         0.0680 
     80 H80       -76.1818   30.0018  -70.5383 H         1 UNK         0.0680 
     81 H81       -75.4282   31.9752  -73.6015 H         1 UNK         0.1032 
     82 H82       -73.7693   32.4464  -73.4229 H         1 UNK         0.1032 
     83 H83       -74.7330   29.8691  -74.7559 H         1 UNK         0.0461 
     84 H84       -73.8678   31.4518  -78.0613 H         1 UNK         0.3453 
     85 H85       -73.1996   30.1060  -77.1551 H         1 UNK         0.3453 
     86 H86       -72.6861   29.0828  -74.6659 H         1 UNK         0.2984 
     87 H87       -69.7013   30.1272  -75.4064 H         1 UNK         0.0554 
     88 H88       -68.4061   29.7663  -73.2940 H         1 UNK         0.0847 
     89 H89       -69.8342   30.1863  -72.3477 H         1 UNK         0.0847 
     90 H90       -69.0772   31.3849  -73.3820 H         1 UNK         0.0847 
     91 H91       -70.0617   27.9641  -75.3274 H         1 UNK         0.3141 
     92 H92       -69.9769   25.7694  -73.8292 H         1 UNK         0.0743 
     93 H93       -71.4428   25.4305  -71.8739 H         1 UNK         0.0784 
     94 H94       -72.8799   25.6751  -72.8564 H         1 UNK         0.0784 
     95 H95       -71.8533   24.2667  -73.1230 H         1 UNK         0.0784 
     96 H96       -72.4901   25.6056  -75.3115 H         1 UNK         0.3213 
     97 H97       -71.1187   26.5044  -78.4397 H         1 UNK         0.0855 
     98 H98       -71.7074   23.6158  -77.5805 H         1 UNK         0.0814 
     99 H99       -70.2201   24.1698  -78.3363 H         1 UNK         0.0814 
    100 H100      -71.7260   24.2285  -79.2356 H         1 UNK         0.0814 
    101 H101      -73.5835   25.2408  -77.7871 H         1 UNK         0.3105 
    102 H102      -75.2673   27.7971  -76.1801 H         1 UNK         0.0547 
    103 H103      -75.6368   27.2674  -79.1787 H         1 UNK         0.0837 
    104 H104      -76.8681   27.9092  -78.0944 H         1 UNK         0.0837 
    105 H105      -75.4259   28.8456  -78.4349 H         1 UNK         0.0837 
    106 H106      -76.4402   25.5957  -77.3994 H         1 UNK         0.3020 
    107 H107      -75.4688   22.9364  -76.2112 H         1 UNK         0.1245 
    108 H108      -75.3779   23.2266  -73.7063 H         1 UNK         0.0781 
    109 H109      -76.6104   22.1653  -74.2839 H         1 UNK         0.0781 
    110 H110      -75.6040   25.1748  -72.5155 H         1 UNK         0.0836 
    111 H111      -76.9358   25.3166  -71.4007 H         1 UNK         0.0836 
    112 H112      -78.1494   24.1757  -75.9631 H         1 UNK         0.3022 
    113 H113      -79.3033   24.3922  -78.3453 H         1 UNK         0.0747 
    114 H114      -79.1600   21.4978  -79.3415 H         1 UNK         0.0793 
    115 H115      -80.3831   22.6839  -79.7993 H         1 UNK         0.0793 
    116 H116      -78.7076   22.9294  -80.2572 H         1 UNK         0.0793 
    117 H117      -80.3908   21.9203  -77.2379 H         1 UNK         0.3047 
    118 H118      -82.2376   22.6331  -75.4002 H         1 UNK         0.0822 
    119 H119      -80.5514   20.7645  -75.4211 H         1 UNK         0.0807 
    120 H120      -81.1754   20.9533  -73.7991 H         1 UNK         0.0807 
    121 H121      -79.5860   21.5923  -74.2048 H         1 UNK         0.0807 
    122 H122      -80.7216   24.4538  -73.8310 H         1 UNK         0.2946 
    123 H123      -83.1145   24.7722  -71.2897 H         1 UNK         0.1144 
    124 H124      -81.6140   23.1326  -70.1451 H         1 UNK         0.0793 
    125 H125      -81.1974   24.7788  -69.6989 H         1 UNK         0.0793 
    126 H126      -80.2019   23.8985  -70.8600 H         1 UNK         0.0793 
    127 H127      -80.6186   26.1103  -71.8722 H         1 UNK         0.2896 
@<TRIPOS>BOND
     1    1    2 1    
     2    1   67 1    
     3    1   68 1    
     4    1   69 1    
     5    2    3 2    
     6    2    4 am   BACKBONE|DICT|INTERRES
     7    4    5 1    
     8    4   70 1    
     9    5    6 1    
    10    5   65 1    
    11    5   71 1    
    12    6    7 1    
    13    6   72 1    
    14    6   73 1    
    15    7    8 1    
    16    8    9 1    
    17    8   74 1    
    18    8   75 1    
    19    9   10 ar   
    20    9   14 ar   
    21   10   11 ar   
    22   10   76 1    
    23   11   12 ar   
    24   11   48 1    
    25   12   13 ar   
    26   12   77 1    
    27   13   14 ar   
    28   13   15 1    
    29   14   78 1    
    30   15   16 1    
    31   15   79 1    
    32   15   80 1    
    33   16   17 1    
    34   17   18 1    
    35   17   81 1    
    36   17   82 1    
    37   18   19 1    
    38   18   22 1    
    39   18   83 1    
    40   19   20 am   BACKBONE|DICT|INTERRES
    41   19   21 2    
    42   20   84 1    
    43   20   85 1    
    44   22   23 am   BACKBONE|DICT|INTERRES
    45   22   86 1    
    46   23   24 2    
    47   23   25 1    
    48   25   26 1    
    49   25   27 1    
    50   25   87 1    
    51   26   88 1    
    52   26   89 1    
    53   26   90 1    
    54   27   28 am   BACKBONE|DICT|INTERRES
    55   27   91 1    
    56   28   29 2    
    57   28   30 1    
    58   30   31 1    
    59   30   32 1    
    60   30   92 1    
    61   31   93 1    
    62   31   94 1    
    63   31   95 1    
    64   32   33 am   BACKBONE|DICT|INTERRES
    65   32   96 1    
    66   33   34 2    
    67   33   35 1    
    68   35   36 1    
    69   35   37 1    
    70   35   97 1    
    71   36   98 1    
    72   36   99 1    
    73   36  100 1    
    74   37   38 am   BACKBONE|DICT|INTERRES
    75   37  101 1    
    76   38   39 2    
    77   38   40 1    
    78   40   41 1    
    79   40   42 1    
    80   40  102 1    
    81   41  103 1    
    82   41  104 1    
    83   41  105 1    
    84   42   43 am   BACKBONE|DICT|INTERRES
    85   42  106 1    
    86   43   44 2    
    87   43   45 1    
    88   45   46 1    
    89   45   49 1    
    90   45  107 1    
    91   46   47 1    
    92   46  108 1    
    93   46  109 1    
    94   47   48 1    
    95   48  110 1    
    96   48  111 1    
    97   49   50 am   BACKBONE|DICT|INTERRES
    98   49  112 1    
    99   50   51 2    
   100   50   52 1    
   101   52   53 1    
   102   52   54 1    
   103   52  113 1    
   104   53  114 1    
   105   53  115 1    
   106   53  116 1    
   107   54   55 am   BACKBONE|DICT|INTERRES
   108   54  117 1    
   109   55   56 2    
   110   55   57 1    
   111   57   58 1    
   112   57   59 1    
   113   57  118 1    
   114   58  119 1    
   115   58  120 1    
   116   58  121 1    
   117   59   60 am   BACKBONE|DICT|INTERRES
   118   59  122 1    
   119   60   61 2    
   120   60   62 1    
   121   62   63 1    
   122   62   64 1    
   123   62  123 1    
   124   63  124 1    
   125   63  125 1    
   126   63  126 1    
   127   64   65 am   BACKBONE|DICT|INTERRES
   128   64  127 1    
   129   65   66 2    
@<TRIPOS>SUBSTRUCTURE
     1 UNK         1 GROUP             0       ****    0 ROOT    
