@<TRIPOS>MOLECULE
3R135
127   129    1
SMALL
USER_CHARGES


@<TRIPOS>ATOM
      1 CA        -81.0268   24.6908  -72.8344 C.3       0 UNK        -0.1998 
      2 C         -81.5835   25.8641  -73.6219 C.2       0 UNK         0.4909 
      3 O         -82.7587   25.8500  -73.9880 O.2       0 UNK        -0.5240 
      4 N         -80.7516   26.8724  -73.9186 N.am      1 UNK        -0.4739 
      5 CA        -81.1230   28.0960  -74.6476 C.3       1 UNK         0.0864 
      6 C6        -80.2774   29.3193  -74.1962 C.3       11 UNK        -0.0881 
      7 S7        -78.4731   29.1697  -74.4604 S.3       11 UNK        -0.2682 
      8 C8        -77.8166   30.2492  -73.1380 C.3       11 UNK         0.0289 
      9 C9        -77.1439   29.4861  -71.9986 C.ar      11 UNK        -0.0687 
     10 C10       -77.6654   28.2778  -71.5228 C.ar      11 UNK        -0.0823 
     11 C11       -77.0157   27.5690  -70.5088 C.ar      11 UNK        -0.0830 
     12 C12       -75.8551   28.0948  -69.9370 C.ar      11 UNK        -0.1021 
     13 C13       -75.3367   29.3142  -70.3791 C.ar      11 UNK        -0.0753 
     14 C14       -75.9862   30.0052  -71.4071 C.ar      11 UNK        -0.0933 
     15 C15       -74.0697   29.8691  -69.7457 C.3       11 UNK         0.0166 
     16 S16       -72.5977   29.0442  -70.4278 S.3       11 UNK        -0.2615 
     17 C17       -71.6263   30.4366  -71.1059 C.3       11 UNK        -0.0865 
     18 CA        -72.3029   31.2307  -72.2589 C.3       10 UNK         0.0862 
     19 C         -71.2877   32.2235  -72.8994 C.2       10 UNK         0.5551 
     20 N         -70.8643   32.0330  -74.1446 N.am      10 UNK        -0.7319 
     21 O         -70.8771   33.1815  -72.2494 O.2       10 UNK        -0.5018 
     22 N         -72.9801   30.3484  -73.2178 N.am      10 UNK        -0.4509 
     23 C         -73.8628   30.7436  -74.1430 C.2       10 UNK         0.4899 
     24 O         -74.2766   31.8999  -74.2394 O.2       10 UNK        -0.4839 
     25 CA        -74.3779   29.6623  -75.1128 C.3       9 UNK         0.0222 
     26 CB        -74.7601   30.2476  -76.4876 C.3       9 UNK        -0.1966 
     27 N         -73.4702   28.5159  -75.2651 N.am      9 UNK        -0.4218 
     28 C         -72.1933   28.5262  -75.6846 C.2       9 UNK         0.5020 
     29 O         -71.5779   29.5456  -76.0011 O.2       9 UNK        -0.5274 
     30 CA        -71.4729   27.1699  -75.7245 C.3       8 UNK         0.0270 
     31 CB        -70.9914   26.7783  -74.3167 C.3       8 UNK        -0.1976 
     32 N         -72.3566   26.1273  -76.2483 N.am      8 UNK        -0.4313 
     33 C         -72.3823   25.7170  -77.5247 C.2       8 UNK         0.5041 
     34 O         -71.5649   26.0679  -78.3768 O.2       8 UNK        -0.5577 
     35 CA        -73.5296   24.7701  -77.9314 C.3       7 UNK         0.0284 
     36 CB        -73.1061   23.3033  -77.7571 C.3       7 UNK        -0.1958 
     37 N         -74.7626   25.0184  -77.1775 N.am      7 UNK        -0.4454 
     38 C         -75.4676   26.1593  -77.2458 C.2       7 UNK         0.5089 
     39 O         -75.2537   27.0326  -78.0856 O.2       7 UNK        -0.5125 
     40 CA        -76.5724   26.3963  -76.1963 C.3       6 UNK         0.0408 
     41 CB        -77.9501   26.3028  -76.8599 C.3       6 UNK        -0.1791 
     42 N         -76.5249   25.4929  -75.0400 N.am      6 UNK        -0.4762 
     43 C         -75.5092   25.4049  -74.1655 C.2       6 UNK         0.5007 
     44 O         -74.5240   26.1443  -74.2062 O.2       6 UNK        -0.5032 
     45 CA        -75.5256   24.2407  -73.1488 C.3       5 UNK         0.0783 
     46 C46       -75.8199   24.7194  -71.7028 C.3       11 UNK        -0.0857 
     47 S47       -77.5960   24.9943  -71.3704 S.3       11 UNK        -0.2512 
     48 C48       -77.5644   26.2317  -70.0358 C.3       11 UNK         0.0225 
     49 N         -76.3884   23.1192  -73.5399 N.am      5 UNK        -0.4615 
     50 C         -76.2999   22.3928  -74.6611 C.2       4 UNK         0.5053 
     51 O         -75.4310   22.5624  -75.5173 O.2       4 UNK        -0.5105 
     52 CA        -77.3897   21.3285  -74.8903 C.3       4 UNK         0.0263 
     53 CB        -78.1532   20.9310  -73.6050 C.3       4 UNK        -0.1981 
     54 N         -78.3409   21.7207  -75.9388 N.am      4 UNK        -0.4224 
     55 C         -79.0828   22.8377  -75.9831 C.2       3 UNK         0.4895 
     56 O         -79.0083   23.7551  -75.1607 O.2       3 UNK        -0.5091 
     57 CA        -80.0958   22.9345  -77.1321 C.3       3 UNK         0.0250 
     58 CB        -81.2164   21.8878  -76.9743 C.3       3 UNK        -0.1996 
     59 N         -80.6781   24.2748  -77.1465 N.am      3 UNK        -0.4254 
     60 C         -81.2373   24.8780  -78.2034 C.2       2 UNK         0.5004 
     61 O         -81.3194   24.3522  -79.3144 O.2       2 UNK        -0.5226 
     62 CA        -81.8076   26.2958  -78.0049 C.3       2 UNK         0.0269 
     63 CB        -83.2767   26.3726  -78.4587 C.3       2 UNK        -0.1926 
     64 N         -81.7220   26.7406  -76.6107 N.am      2 UNK        -0.4687 
     65 C         -81.1756   27.8856  -76.1830 C.2       1 UNK         0.5165 
     66 O         -80.7219   28.7395  -76.9464 O.2       1 UNK        -0.5079 
     67 H67       -79.9414   24.6604  -72.8860 H         1 UNK         0.0900 
     68 H68       -81.4016   23.7510  -73.2390 H         1 UNK         0.0900 
     69 H69       -81.3229   24.7596  -71.7883 H         1 UNK         0.0900 
     70 H70       -79.7802   26.8130  -73.6479 H         1 UNK         0.2959 
     71 H71       -82.1532   28.3360  -74.3737 H         1 UNK         0.1079 
     72 H72       -80.4584   29.4888  -73.1337 H         1 UNK         0.0837 
     73 H73       -80.6222   30.2261  -74.6965 H         1 UNK         0.0837 
     74 H74       -78.6072   30.8787  -72.7285 H         1 UNK         0.0685 
     75 H75       -77.0996   30.9294  -73.6003 H         1 UNK         0.0685 
     76 H76       -78.5666   27.8696  -71.9567 H         1 UNK         0.1434 
     77 H77       -75.3453   27.5527  -69.1521 H         1 UNK         0.1329 
     78 H78       -75.5829   30.9471  -71.7522 H         1 UNK         0.1335 
     79 H79       -74.0119   30.9491  -69.8832 H         1 UNK         0.0680 
     80 H80       -74.0965   29.7053  -68.6674 H         1 UNK         0.0680 
     81 H81       -71.3706   31.1107  -70.2861 H         1 UNK         0.1032 
     82 H82       -70.6783   30.0167  -71.4485 H         1 UNK         0.1032 
     83 H83       -73.0804   31.8538  -71.8145 H         1 UNK         0.0461 
     84 H84       -70.2084   32.6826  -74.5481 H         1 UNK         0.3453 
     85 H85       -71.1940   31.2447  -74.6884 H         1 UNK         0.3453 
     86 H86       -72.7186   29.3749  -73.1830 H         1 UNK         0.2984 
     87 H87       -75.2854   29.2636  -74.6580 H         1 UNK         0.0554 
     88 H88       -75.1608   29.4815  -77.1493 H         1 UNK         0.0847 
     89 H89       -73.9040   30.7057  -76.9835 H         1 UNK         0.0847 
     90 H90       -75.5294   31.0142  -76.3881 H         1 UNK         0.0847 
     91 H91       -73.8543   27.6290  -74.9417 H         1 UNK         0.3141 
     92 H92       -70.5944   27.2745  -76.3649 H         1 UNK         0.0743 
     93 H93       -70.3297   27.5417  -73.9047 H         1 UNK         0.0784 
     94 H94       -71.8205   26.6542  -73.6187 H         1 UNK         0.0784 
     95 H95       -70.4315   25.8433  -74.3383 H         1 UNK         0.0784 
     96 H96       -73.0887   25.8054  -75.6255 H         1 UNK         0.3213 
     97 H97       -73.7422   24.9426  -78.9887 H         1 UNK         0.0855 
     98 H98       -72.8874   23.0669  -76.7149 H         1 UNK         0.0814 
     99 H99       -72.2087   23.0846  -78.3374 H         1 UNK         0.0814 
    100 H100      -73.8864   22.6219  -78.0970 H         1 UNK         0.0814 
    101 H101      -75.0366   24.3098  -76.5032 H         1 UNK         0.3105 
    102 H102      -76.4456   27.4111  -75.8170 H         1 UNK         0.0547 
    103 H103      -78.0900   27.1060  -77.5846 H         1 UNK         0.0837 
    104 H104      -78.0757   25.3588  -77.3896 H         1 UNK         0.0837 
    105 H105      -78.7447   26.3886  -76.1219 H         1 UNK         0.0837 
    106 H106      -77.2968   24.8391  -74.9449 H         1 UNK         0.3020 
    107 H107      -74.5050   23.8514  -73.1538 H         1 UNK         0.1245 
    108 H108      -75.2496   25.6212  -71.4716 H         1 UNK         0.0781 
    109 H109      -75.4711   23.9655  -70.9956 H         1 UNK         0.0781 
    110 H110      -76.9837   25.8394  -69.1995 H         1 UNK         0.0836 
    111 H111      -78.5798   26.3763  -69.6644 H         1 UNK         0.0836 
    112 H112      -77.1711   22.9483  -72.9249 H         1 UNK         0.3022 
    113 H113      -76.8714   20.4397  -75.2536 H         1 UNK         0.0747 
    114 H114      -78.8208   20.0906  -73.7952 H         1 UNK         0.0793 
    115 H115      -77.4663   20.6181  -72.8172 H         1 UNK         0.0793 
    116 H116      -78.7625   21.7465  -73.2128 H         1 UNK         0.0793 
    117 H117      -78.4491   21.0523  -76.6891 H         1 UNK         0.3047 
    118 H118      -79.5598   22.7656  -78.0686 H         1 UNK         0.0822 
    119 H119      -80.8192   20.8723  -76.9763 H         1 UNK         0.0807 
    120 H120      -81.9360   21.9490  -77.7910 H         1 UNK         0.0807 
    121 H121      -81.7618   22.0239  -76.0394 H         1 UNK         0.0807 
    122 H122      -80.5618   24.7825  -76.2794 H         1 UNK         0.2946 
    123 H123      -81.2138   26.9514  -78.6459 H         1 UNK         0.1144 
    124 H124      -83.3827   26.0843  -79.5054 H         1 UNK         0.0793 
    125 H125      -83.6669   27.3861  -78.3640 H         1 UNK         0.0793 
    126 H126      -83.9142   25.7113  -77.8705 H         1 UNK         0.0793 
    127 H127      -82.1322   26.1326  -75.9087 H         1 UNK         0.2896 
@<TRIPOS>BOND
     1    1    2 1    
     2    1   67 1    
     3    1   68 1    
     4    1   69 1    
     5    2    3 2    
     6    2    4 am   BACKBONE|DICT|INTERRES
     7    4    5 1    
     8    4   70 1    
     9    5    6 1    
    10    5   65 1    
    11    5   71 1    
    12    6    7 1    
    13    6   72 1    
    14    6   73 1    
    15    7    8 1    
    16    8    9 1    
    17    8   74 1    
    18    8   75 1    
    19    9   10 ar   
    20    9   14 ar   
    21   10   11 ar   
    22   10   76 1    
    23   11   12 ar   
    24   11   48 1    
    25   12   13 ar   
    26   12   77 1    
    27   13   14 ar   
    28   13   15 1    
    29   14   78 1    
    30   15   16 1    
    31   15   79 1    
    32   15   80 1    
    33   16   17 1    
    34   17   18 1    
    35   17   81 1    
    36   17   82 1    
    37   18   19 1    
    38   18   22 1    
    39   18   83 1    
    40   19   20 am   BACKBONE|DICT|INTERRES
    41   19   21 2    
    42   20   84 1    
    43   20   85 1    
    44   22   23 am   BACKBONE|DICT|INTERRES
    45   22   86 1    
    46   23   24 2    
    47   23   25 1    
    48   25   26 1    
    49   25   27 1    
    50   25   87 1    
    51   26   88 1    
    52   26   89 1    
    53   26   90 1    
    54   27   28 am   BACKBONE|DICT|INTERRES
    55   27   91 1    
    56   28   29 2    
    57   28   30 1    
    58   30   31 1    
    59   30   32 1    
    60   30   92 1    
    61   31   93 1    
    62   31   94 1    
    63   31   95 1    
    64   32   33 am   BACKBONE|DICT|INTERRES
    65   32   96 1    
    66   33   34 2    
    67   33   35 1    
    68   35   36 1    
    69   35   37 1    
    70   35   97 1    
    71   36   98 1    
    72   36   99 1    
    73   36  100 1    
    74   37   38 am   BACKBONE|DICT|INTERRES
    75   37  101 1    
    76   38   39 2    
    77   38   40 1    
    78   40   41 1    
    79   40   42 1    
    80   40  102 1    
    81   41  103 1    
    82   41  104 1    
    83   41  105 1    
    84   42   43 am   BACKBONE|DICT|INTERRES
    85   42  106 1    
    86   43   44 2    
    87   43   45 1    
    88   45   46 1    
    89   45   49 1    
    90   45  107 1    
    91   46   47 1    
    92   46  108 1    
    93   46  109 1    
    94   47   48 1    
    95   48  110 1    
    96   48  111 1    
    97   49   50 am   BACKBONE|DICT|INTERRES
    98   49  112 1    
    99   50   51 2    
   100   50   52 1    
   101   52   53 1    
   102   52   54 1    
   103   52  113 1    
   104   53  114 1    
   105   53  115 1    
   106   53  116 1    
   107   54   55 am   BACKBONE|DICT|INTERRES
   108   54  117 1    
   109   55   56 2    
   110   55   57 1    
   111   57   58 1    
   112   57   59 1    
   113   57  118 1    
   114   58  119 1    
   115   58  120 1    
   116   58  121 1    
   117   59   60 am   BACKBONE|DICT|INTERRES
   118   59  122 1    
   119   60   61 2    
   120   60   62 1    
   121   62   63 1    
   122   62   64 1    
   123   62  123 1    
   124   63  124 1    
   125   63  125 1    
   126   63  126 1    
   127   64   65 am   BACKBONE|DICT|INTERRES
   128   64  127 1    
   129   65   66 2    
@<TRIPOS>SUBSTRUCTURE
     1 UNK         1 GROUP             0       ****    0 ROOT    
