@<TRIPOS>MOLECULE
3R135
127   129    1
SMALL
USER_CHARGES


@<TRIPOS>ATOM
      1 CA        -85.1196   29.4628  -76.1319 C.3       0 UNK        -0.1998 
      2 C         -83.6242   29.2473  -76.3099 C.2       0 UNK         0.4909 
      3 O         -83.0850   29.5513  -77.3744 O.2       0 UNK        -0.5240 
      4 N         -82.9515   28.7288  -75.2737 N.am      1 UNK        -0.4739 
      5 CA        -81.5098   28.4434  -75.2619 C.3       1 UNK         0.0864 
      6 C6        -81.0017   28.1522  -73.8271 C.3       11 UNK        -0.0881 
      7 S7        -81.0563   29.6467  -72.7881 S.3       11 UNK        -0.2682 
      8 C8        -80.6210   28.9757  -71.1505 C.3       11 UNK         0.0289 
      9 C9        -79.1370   28.6549  -70.9968 C.ar      11 UNK        -0.0687 
     10 C10       -78.7328   27.3816  -70.5806 C.ar      11 UNK        -0.0823 
     11 C11       -77.3817   27.1034  -70.3458 C.ar      11 UNK        -0.0830 
     12 C12       -76.4258   28.0982  -70.5647 C.ar      11 UNK        -0.1021 
     13 C13       -76.8156   29.3753  -70.9780 C.ar      11 UNK        -0.0753 
     14 C14       -78.1708   29.6491  -71.1892 C.ar      11 UNK        -0.0933 
     15 C15       -75.7733   30.4682  -71.1490 C.3       11 UNK         0.0166 
     16 S16       -75.3149   30.6789  -72.8931 S.3       11 UNK        -0.2615 
     17 C17       -73.7570   31.6185  -72.7290 C.3       11 UNK        -0.0865 
     18 CA        -72.4868   30.7780  -73.0296 C.3       10 UNK         0.0862 
     19 C         -72.1351   29.7942  -71.8770 C.2       10 UNK         0.5551 
     20 N         -72.1647   28.4835  -72.0745 N.am      10 UNK        -0.7319 
     21 O         -71.8117   30.2377  -70.7779 O.2       10 UNK        -0.5018 
     22 N         -72.5338   30.1991  -74.3814 N.am      10 UNK        -0.4509 
     23 C         -71.4620   29.8954  -75.1217 C.2       10 UNK         0.4899 
     24 O         -70.3000   29.9697  -74.7188 O.2       10 UNK        -0.4839 
     25 CA        -71.7562   29.5027  -76.5774 C.3       9 UNK         0.0222 
     26 CB        -70.7262   30.0808  -77.5717 C.3       9 UNK        -0.1966 
     27 N         -71.9326   28.0581  -76.7397 N.am      9 UNK        -0.4218 
     28 C         -71.0087   27.0849  -76.6957 C.2       9 UNK         0.5020 
     29 O         -69.8102   27.2832  -76.4919 O.2       9 UNK        -0.5274 
     30 CA        -71.4765   25.6320  -76.9400 C.3       8 UNK         0.0270 
     31 CB        -71.0580   24.7152  -75.7767 C.3       8 UNK        -0.1976 
     32 N         -72.9188   25.4891  -77.1605 N.am      8 UNK        -0.4313 
     33 C         -73.5820   25.8238  -78.2762 C.2       8 UNK         0.5041 
     34 O         -73.0333   26.2122  -79.3075 O.2       8 UNK        -0.5577 
     35 CA        -75.1215   25.7783  -78.2078 C.3       7 UNK         0.0284 
     36 CB        -75.6446   24.3966  -78.6274 C.3       7 UNK        -0.1958 
     37 N         -75.6474   26.1310  -76.8822 N.am      7 UNK        -0.4454 
     38 C         -75.4713   27.3227  -76.2909 C.2       7 UNK         0.5089 
     39 O         -74.8962   28.2709  -76.8249 O.2       7 UNK        -0.5125 
     40 CA        -75.9467   27.4671  -74.8400 C.3       6 UNK         0.0408 
     41 CB        -77.4203   27.8693  -74.7655 C.3       6 UNK        -0.1791 
     42 N         -75.7284   26.2500  -74.0638 N.am      6 UNK        -0.4762 
     43 C         -74.5329   25.8742  -73.5948 C.2       6 UNK         0.5007 
     44 O         -73.5027   26.5306  -73.7521 O.2       6 UNK        -0.5032 
     45 CA        -74.4678   24.5159  -72.8694 C.3       5 UNK         0.0783 
     46 C46       -74.8799   24.6356  -71.3772 C.3       11 UNK        -0.0857 
     47 S47       -76.6861   24.5249  -71.0942 S.3       11 UNK        -0.2512 
     48 C48       -76.9681   25.7509  -69.7857 C.3       11 UNK         0.0225 
     49 N         -75.2262   23.4700  -73.5630 N.am      5 UNK        -0.4615 
     50 C         -75.0089   23.0340  -74.8080 C.2       4 UNK         0.5053 
     51 O         -74.0772   23.4151  -75.5130 O.2       4 UNK        -0.5105 
     52 CA        -76.0294   22.0323  -75.3760 C.3       4 UNK         0.0263 
     53 CB        -75.6045   20.5929  -75.0457 C.3       4 UNK        -0.1981 
     54 N         -77.4085   22.2525  -74.9211 N.am      4 UNK        -0.4224 
     55 C         -78.1170   23.3764  -75.1044 C.2       3 UNK         0.4895 
     56 O         -77.6622   24.4005  -75.6203 O.2       3 UNK        -0.5091 
     57 CA        -79.5588   23.3586  -74.5658 C.3       3 UNK         0.0250 
     58 CB        -79.5856   23.7877  -73.0905 C.3       3 UNK        -0.1996 
     59 N         -80.4596   24.2325  -75.3180 N.am      3 UNK        -0.4254 
     60 C         -80.8238   24.0691  -76.5975 C.2       2 UNK         0.5004 
     61 O         -80.4536   23.1258  -77.2982 O.2       2 UNK        -0.5226 
     62 CA        -81.7976   25.1074  -77.1922 C.3       2 UNK         0.0269 
     63 CB        -83.1661   24.4651  -77.4769 C.3       2 UNK        -0.1926 
     64 N         -82.0015   26.2876  -76.3426 N.am      2 UNK        -0.4687 
     65 C         -81.1275   27.2974  -76.2219 C.2       1 UNK         0.5165 
     66 O         -80.0613   27.3480  -76.8339 O.2       1 UNK        -0.5079 
     67 H67       -85.6724   28.8862  -76.8730 H         1 UNK         0.0900 
     68 H68       -85.4609   29.1593  -75.1424 H         1 UNK         0.0900 
     69 H69       -85.3653   30.5159  -76.2666 H         1 UNK         0.0900 
     70 H70       -83.4435   28.5301  -74.4140 H         1 UNK         0.2959 
     71 H71       -80.9940   29.3329  -75.6321 H         1 UNK         0.1079 
     72 H72       -81.5952   27.3652  -73.3580 H         1 UNK         0.0837 
     73 H73       -79.9750   27.7910  -73.8325 H         1 UNK         0.0837 
     74 H74       -80.8911   29.7139  -70.3943 H         1 UNK         0.0685 
     75 H75       -81.2365   28.0974  -70.9498 H         1 UNK         0.0685 
     76 H76       -79.4731   26.6136  -70.4019 H         1 UNK         0.1434 
     77 H77       -75.3802   27.8886  -70.3845 H         1 UNK         0.1329 
     78 H78       -78.4755   30.6412  -71.4932 H         1 UNK         0.1335 
     79 H79       -76.1539   31.4133  -70.7589 H         1 UNK         0.0680 
     80 H80       -74.8846   30.2283  -70.5631 H         1 UNK         0.0680 
     81 H81       -73.8053   32.4551  -73.4276 H         1 UNK         0.1032 
     82 H82       -73.6947   32.0785  -71.7407 H         1 UNK         0.1032 
     83 H83       -71.6598   31.4913  -73.0351 H         1 UNK         0.0461 
     84 H84       -71.9152   27.8724  -71.3149 H         1 UNK         0.3453 
     85 H85       -72.4915   28.0849  -72.9470 H         1 UNK         0.3453 
     86 H86       -73.4576   30.0742  -74.7703 H         1 UNK         0.2984 
     87 H87       -72.7177   29.9444  -76.8444 H         1 UNK         0.0554 
     88 H88       -70.7019   31.1694  -77.5109 H         1 UNK         0.0847 
     89 H89       -70.9766   29.8186  -78.5996 H         1 UNK         0.0847 
     90 H90       -69.7139   29.7284  -77.3728 H         1 UNK         0.0847 
     91 H91       -72.8970   27.7780  -76.8821 H         1 UNK         0.3141 
     92 H92       -70.9644   25.2855  -77.8399 H         1 UNK         0.0743 
     93 H93       -71.5324   25.0114  -74.8409 H         1 UNK         0.0784 
     94 H94       -71.3255   23.6770  -75.9739 H         1 UNK         0.0784 
     95 H95       -69.9791   24.7440  -75.6188 H         1 UNK         0.0784 
     96 H96       -73.4496   25.0821  -76.3954 H         1 UNK         0.3213 
     97 H97       -75.5061   26.5166  -78.9146 H         1 UNK         0.0855 
     98 H98       -75.2054   23.6023  -78.0256 H         1 UNK         0.0814 
     99 H99       -75.3917   24.1883  -79.6677 H         1 UNK         0.0814 
    100 H100      -76.7292   24.3320  -78.5357 H         1 UNK         0.0814 
    101 H101      -76.1889   25.4250  -76.3892 H         1 UNK         0.3105 
    102 H102      -75.3609   28.2680  -74.3889 H         1 UNK         0.0547 
    103 H103      -77.6223   28.7501  -75.3764 H         1 UNK         0.0837 
    104 H104      -78.0690   27.0667  -75.1151 H         1 UNK         0.0837 
    105 H105      -77.6970   28.1145  -73.7403 H         1 UNK         0.0837 
    106 H106      -76.5181   25.6302  -73.9442 H         1 UNK         0.3020 
    107 H107      -73.4180   24.2147  -72.8983 H         1 UNK         0.1245 
    108 H108      -74.4816   25.5500  -70.9331 H         1 UNK         0.0781 
    109 H109      -74.4217   23.8196  -70.8163 H         1 UNK         0.0781 
    110 H110      -76.0805   25.8458  -69.1584 H         1 UNK         0.0836 
    111 H111      -77.7540   25.3761  -69.1282 H         1 UNK         0.0836 
    112 H112      -76.0252   23.1122  -73.0598 H         1 UNK         0.3022 
    113 H113      -76.0288   22.1418  -76.4610 H         1 UNK         0.0747 
    114 H114      -76.2564   19.8648  -75.5288 H         1 UNK         0.0793 
    115 H115      -74.5896   20.3964  -75.3947 H         1 UNK         0.0793 
    116 H116      -75.6224   20.4014  -73.9720 H         1 UNK         0.0793 
    117 H117      -77.8584   21.4691  -74.4691 H         1 UNK         0.3047 
    118 H118      -79.9465   22.3406  -74.6438 H         1 UNK         0.0822 
    119 H119      -78.9816   23.1180  -72.4774 H         1 UNK         0.0807 
    120 H120      -80.5975   23.7628  -72.6857 H         1 UNK         0.0807 
    121 H121      -79.1952   24.7978  -72.9559 H         1 UNK         0.0807 
    122 H122      -80.8082   25.0451  -74.8350 H         1 UNK         0.2946 
    123 H123      -81.3690   25.4341  -78.1428 H         1 UNK         0.1144 
    124 H124      -83.8421   25.1696  -77.9620 H         1 UNK         0.0793 
    125 H125      -83.6453   24.1131  -76.5624 H         1 UNK         0.0793 
    126 H126      -83.0653   23.6068  -78.1428 H         1 UNK         0.0793 
    127 H127      -82.8661   26.3346  -75.8224 H         1 UNK         0.2896 
@<TRIPOS>BOND
     1    1    2 1    
     2    1   67 1    
     3    1   68 1    
     4    1   69 1    
     5    2    3 2    
     6    2    4 am   BACKBONE|DICT|INTERRES
     7    4    5 1    
     8    4   70 1    
     9    5    6 1    
    10    5   65 1    
    11    5   71 1    
    12    6    7 1    
    13    6   72 1    
    14    6   73 1    
    15    7    8 1    
    16    8    9 1    
    17    8   74 1    
    18    8   75 1    
    19    9   10 ar   
    20    9   14 ar   
    21   10   11 ar   
    22   10   76 1    
    23   11   12 ar   
    24   11   48 1    
    25   12   13 ar   
    26   12   77 1    
    27   13   14 ar   
    28   13   15 1    
    29   14   78 1    
    30   15   16 1    
    31   15   79 1    
    32   15   80 1    
    33   16   17 1    
    34   17   18 1    
    35   17   81 1    
    36   17   82 1    
    37   18   19 1    
    38   18   22 1    
    39   18   83 1    
    40   19   20 am   BACKBONE|DICT|INTERRES
    41   19   21 2    
    42   20   84 1    
    43   20   85 1    
    44   22   23 am   BACKBONE|DICT|INTERRES
    45   22   86 1    
    46   23   24 2    
    47   23   25 1    
    48   25   26 1    
    49   25   27 1    
    50   25   87 1    
    51   26   88 1    
    52   26   89 1    
    53   26   90 1    
    54   27   28 am   BACKBONE|DICT|INTERRES
    55   27   91 1    
    56   28   29 2    
    57   28   30 1    
    58   30   31 1    
    59   30   32 1    
    60   30   92 1    
    61   31   93 1    
    62   31   94 1    
    63   31   95 1    
    64   32   33 am   BACKBONE|DICT|INTERRES
    65   32   96 1    
    66   33   34 2    
    67   33   35 1    
    68   35   36 1    
    69   35   37 1    
    70   35   97 1    
    71   36   98 1    
    72   36   99 1    
    73   36  100 1    
    74   37   38 am   BACKBONE|DICT|INTERRES
    75   37  101 1    
    76   38   39 2    
    77   38   40 1    
    78   40   41 1    
    79   40   42 1    
    80   40  102 1    
    81   41  103 1    
    82   41  104 1    
    83   41  105 1    
    84   42   43 am   BACKBONE|DICT|INTERRES
    85   42  106 1    
    86   43   44 2    
    87   43   45 1    
    88   45   46 1    
    89   45   49 1    
    90   45  107 1    
    91   46   47 1    
    92   46  108 1    
    93   46  109 1    
    94   47   48 1    
    95   48  110 1    
    96   48  111 1    
    97   49   50 am   BACKBONE|DICT|INTERRES
    98   49  112 1    
    99   50   51 2    
   100   50   52 1    
   101   52   53 1    
   102   52   54 1    
   103   52  113 1    
   104   53  114 1    
   105   53  115 1    
   106   53  116 1    
   107   54   55 am   BACKBONE|DICT|INTERRES
   108   54  117 1    
   109   55   56 2    
   110   55   57 1    
   111   57   58 1    
   112   57   59 1    
   113   57  118 1    
   114   58  119 1    
   115   58  120 1    
   116   58  121 1    
   117   59   60 am   BACKBONE|DICT|INTERRES
   118   59  122 1    
   119   60   61 2    
   120   60   62 1    
   121   62   63 1    
   122   62   64 1    
   123   62  123 1    
   124   63  124 1    
   125   63  125 1    
   126   63  126 1    
   127   64   65 am   BACKBONE|DICT|INTERRES
   128   64  127 1    
   129   65   66 2    
@<TRIPOS>SUBSTRUCTURE
     1 UNK         1 GROUP             0       ****    0 ROOT    
