@<TRIPOS>MOLECULE
3R135
127   129    1
SMALL
USER_CHARGES


@<TRIPOS>ATOM
      1 CA        -83.2872   28.9865  -75.3664 C.3       0 UNK        -0.1998 
      2 C         -82.1132   28.4292  -74.5753 C.2       0 UNK         0.4909 
      3 O         -81.0779   29.0850  -74.4851 O.2       0 UNK        -0.5240 
      4 N         -82.2790   27.2332  -73.9992 N.am      1 UNK        -0.4739 
      5 CA        -81.2693   26.5204  -73.2026 C.3       1 UNK         0.0864 
      6 C6        -81.7013   26.4988  -71.7109 C.3       11 UNK        -0.0881 
      7 S7        -80.3359   26.2665  -70.5210 S.3       11 UNK        -0.2682 
      8 C8        -79.9887   27.9622  -69.9476 C.3       11 UNK         0.0289 
      9 C9        -78.8566   28.6118  -70.7318 C.ar      11 UNK        -0.0687 
     10 C10       -79.1226   29.5756  -71.7091 C.ar      11 UNK        -0.0823 
     11 C11       -78.0772   30.1955  -72.4040 C.ar      11 UNK        -0.0830 
     12 C12       -76.7568   29.8269  -72.1213 C.ar      11 UNK        -0.1021 
     13 C13       -76.4771   28.8551  -71.1571 C.ar      11 UNK        -0.0753 
     14 C14       -77.5313   28.2625  -70.4560 C.ar      11 UNK        -0.0933 
     15 C15       -75.0446   28.4000  -70.9163 C.3       11 UNK         0.0166 
     16 S16       -73.9436   29.7579  -70.4135 S.3       11 UNK        -0.2615 
     17 C17       -72.3480   28.8723  -70.3336 C.3       11 UNK        -0.0865 
     18 CA        -71.3902   29.2185  -71.5057 C.3       10 UNK         0.0862 
     19 C         -69.9863   28.5842  -71.2716 C.2       10 UNK         0.5551 
     20 N         -69.5088   27.6836  -72.1221 N.am      10 UNK        -0.7319 
     21 O         -69.3169   28.9212  -70.2981 O.2       10 UNK        -0.5018 
     22 N         -71.9918   28.9214  -72.8187 N.am      10 UNK        -0.4509 
     23 C         -71.5842   29.4323  -73.9866 C.2       10 UNK         0.4899 
     24 O         -70.6450   30.2217  -74.0975 O.2       10 UNK        -0.4839 
     25 CA        -72.3524   28.9648  -75.2382 C.3       9 UNK         0.0222 
     26 CB        -71.9231   29.7067  -76.5171 C.3       9 UNK        -0.1966 
     27 N         -72.2196   27.5225  -75.4587 N.am      9 UNK        -0.4218 
     28 C         -72.8898   26.5721  -74.7986 C.2       9 UNK         0.5020 
     29 O         -73.7423   26.8171  -73.9427 O.2       9 UNK        -0.5274 
     30 CA        -72.5762   25.1207  -75.1914 C.3       8 UNK         0.0270 
     31 CB        -72.9115   24.1051  -74.0836 C.3       8 UNK        -0.1976 
     32 N         -73.2915   24.7716  -76.4188 N.am      8 UNK        -0.4313 
     33 C         -72.8387   25.0446  -77.6501 C.2       8 UNK         0.5041 
     34 O         -71.7600   25.5975  -77.8720 O.2       8 UNK        -0.5577 
     35 CA        -73.7472   24.6702  -78.8244 C.3       7 UNK         0.0284 
     36 CB        -73.9328   23.1460  -78.9338 C.3       7 UNK        -0.1958 
     37 N         -75.0461   25.3250  -78.6721 N.am      7 UNK        -0.4454 
     38 C         -75.5461   26.2287  -79.5244 C.2       7 UNK         0.5089 
     39 O         -74.9901   26.5808  -80.5657 O.2       7 UNK        -0.5125 
     40 CA        -76.9015   26.8513  -79.1531 C.3       6 UNK         0.0408 
     41 CB        -78.0378   25.8419  -79.3761 C.3       6 UNK        -0.1791 
     42 N         -76.9516   27.3503  -77.7778 N.am      6 UNK        -0.4762 
     43 C         -76.2232   28.3632  -77.2851 C.2       6 UNK         0.5007 
     44 O         -75.3982   28.9943  -77.9457 O.2       6 UNK        -0.5032 
     45 CA        -76.4482   28.7383  -75.8041 C.3       5 UNK         0.0783 
     46 C46       -77.7261   29.6135  -75.6119 C.3       11 UNK        -0.0857 
     47 S47       -77.3364   31.2530  -74.9196 S.3       11 UNK        -0.2512 
     48 C48       -78.3958   31.2811  -73.4313 C.3       11 UNK         0.0225 
     49 N         -76.3651   27.5629  -74.9252 N.am      5 UNK        -0.4615 
     50 C         -77.2655   26.5829  -74.8071 C.2       4 UNK         0.5053 
     51 O         -78.3729   26.5979  -75.3488 O.2       4 UNK        -0.5105 
     52 CA        -76.8202   25.3492  -74.0129 C.3       4 UNK         0.0263 
     53 CB        -77.1408   25.4785  -72.5205 C.3       4 UNK        -0.1981 
     54 N         -77.4573   24.1539  -74.5561 N.am      4 UNK        -0.4224 
     55 C         -77.0764   23.5723  -75.7021 C.2       3 UNK         0.4895 
     56 O         -76.0799   23.9215  -76.3409 O.2       3 UNK        -0.5091 
     57 CA        -77.9467   22.4201  -76.2341 C.3       3 UNK         0.0250 
     58 CB        -77.3610   21.0663  -75.8038 C.3       3 UNK        -0.1996 
     59 N         -79.3423   22.5120  -75.7929 N.am      3 UNK        -0.4254 
     60 C         -80.2289   23.3911  -76.2810 C.2       2 UNK         0.5004 
     61 O         -79.9962   24.1409  -77.2287 O.2       2 UNK        -0.5226 
     62 CA        -81.6086   23.4706  -75.6031 C.3       2 UNK         0.0269 
     63 CB        -81.9732   22.2393  -74.7402 C.3       2 UNK        -0.1926 
     64 N         -81.7389   24.7200  -74.8413 N.am      2 UNK        -0.4687 
     65 C         -81.0090   25.1041  -73.7785 C.2       1 UNK         0.5165 
     66 O         -80.1555   24.3810  -73.2621 O.2       1 UNK        -0.5079 
     67 H67       -82.9955   29.1483  -76.4038 H         1 UNK         0.0900 
     68 H68       -83.6000   29.9427  -74.9478 H         1 UNK         0.0900 
     69 H69       -84.1453   28.3148  -75.3558 H         1 UNK         0.0900 
     70 H70       -83.1739   26.7702  -74.0781 H         1 UNK         0.2959 
     71 H71       -80.3137   27.0459  -73.2767 H         1 UNK         0.1079 
     72 H72       -82.4448   25.7184  -71.5378 H         1 UNK         0.0837 
     73 H73       -82.2072   27.4316  -71.4578 H         1 UNK         0.0837 
     74 H74       -80.8907   28.5744  -69.9838 H         1 UNK         0.0685 
     75 H75       -79.7057   27.9157  -68.8949 H         1 UNK         0.0685 
     76 H76       -80.1467   29.8497  -71.9238 H         1 UNK         0.1434 
     77 H77       -75.9392   30.2904  -72.6555 H         1 UNK         0.1329 
     78 H78       -77.3259   27.5081  -69.7088 H         1 UNK         0.1335 
     79 H79       -75.0113   27.6185  -70.1555 H         1 UNK         0.0680 
     80 H80       -74.6664   27.9545  -71.8347 H         1 UNK         0.0680 
     81 H81       -72.5199   27.7952  -70.2885 H         1 UNK         0.1032 
     82 H82       -71.8870   29.1368  -69.3798 H         1 UNK         0.1032 
     83 H83       -71.2275   30.2977  -71.4739 H         1 UNK         0.0461 
     84 H84       -68.5976   27.2846  -71.9597 H         1 UNK         0.3453 
     85 H85       -70.0443   27.4125  -72.9297 H         1 UNK         0.3453 
     86 H86       -72.7478   28.2467  -72.8342 H         1 UNK         0.2984 
     87 H87       -73.4020   29.1985  -75.0631 H         1 UNK         0.0554 
     88 H88       -72.5346   29.4101  -77.3699 H         1 UNK         0.0847 
     89 H89       -70.8796   29.5128  -76.7679 H         1 UNK         0.0847 
     90 H90       -72.0366   30.7853  -76.4005 H         1 UNK         0.0847 
     91 H91       -71.5718   27.2285  -76.1797 H         1 UNK         0.3141 
     92 H92       -71.4994   25.0538  -75.3631 H         1 UNK         0.0743 
     93 H93       -73.9817   23.9873  -73.9297 H         1 UNK         0.0784 
     94 H94       -72.5086   23.1213  -74.3245 H         1 UNK         0.0784 
     95 H95       -72.4750   24.4069  -73.1304 H         1 UNK         0.0784 
     96 H96       -74.2153   24.3582  -76.3149 H         1 UNK         0.3213 
     97 H97       -73.2498   25.0086  -79.7360 H         1 UNK         0.0855 
     98 H98       -74.4310   22.7239  -78.0609 H         1 UNK         0.0814 
     99 H99       -72.9698   22.6436  -79.0339 H         1 UNK         0.0814 
    100 H100      -74.5255   22.8858  -79.8108 H         1 UNK         0.0814 
    101 H101      -75.5774   25.0815  -77.8413 H         1 UNK         0.3105 
    102 H102      -77.0714   27.7018  -79.8165 H         1 UNK         0.0547 
    103 H103      -78.0522   25.4913  -80.4089 H         1 UNK         0.0837 
    104 H104      -77.9302   24.9652  -78.7365 H         1 UNK         0.0837 
    105 H105      -79.0124   26.2852  -79.1706 H         1 UNK         0.0837 
    106 H106      -77.6115   26.9051  -77.1453 H         1 UNK         0.3020 
    107 H107      -75.5814   29.3397  -75.5336 H         1 UNK         0.1245 
    108 H108      -78.4494   29.1244  -74.9604 H         1 UNK         0.0781 
    109 H109      -78.2646   29.7768  -76.5477 H         1 UNK         0.0781 
    110 H110      -79.4362   31.2075  -73.7525 H         1 UNK         0.0836 
    111 H111      -78.2915   32.2535  -72.9487 H         1 UNK         0.0836 
    112 H112      -75.4654   27.4255  -74.4698 H         1 UNK         0.3022 
    113 H113      -75.7446   25.2364  -74.1192 H         1 UNK         0.0747 
    114 H114      -77.0483   24.5252  -72.0003 H         1 UNK         0.0793 
    115 H115      -76.4485   26.1706  -72.0462 H         1 UNK         0.0793 
    116 H116      -78.1479   25.8580  -72.3563 H         1 UNK         0.0793 
    117 H117      -78.3456   23.8967  -74.1390 H         1 UNK         0.3047 
    118 H118      -77.9233   22.4706  -77.3250 H         1 UNK         0.0822 
    119 H119      -77.9241   20.2363  -76.2312 H         1 UNK         0.0807 
    120 H120      -77.3612   20.9509  -74.7192 H         1 UNK         0.0807 
    121 H121      -76.3287   20.9639  -76.1423 H         1 UNK         0.0807 
    122 H122      -79.6154   21.9404  -75.0064 H         1 UNK         0.2946 
    123 H123      -82.3363   23.5231  -76.4150 H         1 UNK         0.1144 
    124 H124      -81.9163   21.3209  -75.3261 H         1 UNK         0.0793 
    125 H125      -82.9953   22.3157  -74.3691 H         1 UNK         0.0793 
    126 H126      -81.3217   22.1190  -73.8747 H         1 UNK         0.0793 
    127 H127      -82.3590   25.4059  -75.2463 H         1 UNK         0.2896 
@<TRIPOS>BOND
     1    1    2 1    
     2    1   67 1    
     3    1   68 1    
     4    1   69 1    
     5    2    3 2    
     6    2    4 am   BACKBONE|DICT|INTERRES
     7    4    5 1    
     8    4   70 1    
     9    5    6 1    
    10    5   65 1    
    11    5   71 1    
    12    6    7 1    
    13    6   72 1    
    14    6   73 1    
    15    7    8 1    
    16    8    9 1    
    17    8   74 1    
    18    8   75 1    
    19    9   10 ar   
    20    9   14 ar   
    21   10   11 ar   
    22   10   76 1    
    23   11   12 ar   
    24   11   48 1    
    25   12   13 ar   
    26   12   77 1    
    27   13   14 ar   
    28   13   15 1    
    29   14   78 1    
    30   15   16 1    
    31   15   79 1    
    32   15   80 1    
    33   16   17 1    
    34   17   18 1    
    35   17   81 1    
    36   17   82 1    
    37   18   19 1    
    38   18   22 1    
    39   18   83 1    
    40   19   20 am   BACKBONE|DICT|INTERRES
    41   19   21 2    
    42   20   84 1    
    43   20   85 1    
    44   22   23 am   BACKBONE|DICT|INTERRES
    45   22   86 1    
    46   23   24 2    
    47   23   25 1    
    48   25   26 1    
    49   25   27 1    
    50   25   87 1    
    51   26   88 1    
    52   26   89 1    
    53   26   90 1    
    54   27   28 am   BACKBONE|DICT|INTERRES
    55   27   91 1    
    56   28   29 2    
    57   28   30 1    
    58   30   31 1    
    59   30   32 1    
    60   30   92 1    
    61   31   93 1    
    62   31   94 1    
    63   31   95 1    
    64   32   33 am   BACKBONE|DICT|INTERRES
    65   32   96 1    
    66   33   34 2    
    67   33   35 1    
    68   35   36 1    
    69   35   37 1    
    70   35   97 1    
    71   36   98 1    
    72   36   99 1    
    73   36  100 1    
    74   37   38 am   BACKBONE|DICT|INTERRES
    75   37  101 1    
    76   38   39 2    
    77   38   40 1    
    78   40   41 1    
    79   40   42 1    
    80   40  102 1    
    81   41  103 1    
    82   41  104 1    
    83   41  105 1    
    84   42   43 am   BACKBONE|DICT|INTERRES
    85   42  106 1    
    86   43   44 2    
    87   43   45 1    
    88   45   46 1    
    89   45   49 1    
    90   45  107 1    
    91   46   47 1    
    92   46  108 1    
    93   46  109 1    
    94   47   48 1    
    95   48  110 1    
    96   48  111 1    
    97   49   50 am   BACKBONE|DICT|INTERRES
    98   49  112 1    
    99   50   51 2    
   100   50   52 1    
   101   52   53 1    
   102   52   54 1    
   103   52  113 1    
   104   53  114 1    
   105   53  115 1    
   106   53  116 1    
   107   54   55 am   BACKBONE|DICT|INTERRES
   108   54  117 1    
   109   55   56 2    
   110   55   57 1    
   111   57   58 1    
   112   57   59 1    
   113   57  118 1    
   114   58  119 1    
   115   58  120 1    
   116   58  121 1    
   117   59   60 am   BACKBONE|DICT|INTERRES
   118   59  122 1    
   119   60   61 2    
   120   60   62 1    
   121   62   63 1    
   122   62   64 1    
   123   62  123 1    
   124   63  124 1    
   125   63  125 1    
   126   63  126 1    
   127   64   65 am   BACKBONE|DICT|INTERRES
   128   64  127 1    
   129   65   66 2    
@<TRIPOS>SUBSTRUCTURE
     1 UNK         1 GROUP             0       ****    0 ROOT    
