@<TRIPOS>MOLECULE
3R135
127   129    1
SMALL
USER_CHARGES


@<TRIPOS>ATOM
      1 CA        -76.1848   25.3944  -72.7917 C.3       0 UNK        -0.1998 
      2 C         -77.5131   24.8696  -72.2745 C.2       0 UNK         0.4909 
      3 O         -77.6679   23.6588  -72.1058 O.2       0 UNK        -0.5240 
      4 N         -78.4709   25.7690  -72.0149 N.am      1 UNK        -0.4739 
      5 CA        -79.7982   25.4591  -71.4741 C.3       1 UNK         0.0864 
      6 C6        -80.6106   26.7344  -71.1476 C.3       11 UNK        -0.0881 
      7 S7        -79.8156   27.7170  -69.8330 S.3       11 UNK        -0.2682 
      8 C8        -80.3768   29.4007  -70.2380 C.3       11 UNK         0.0289 
      9 C9        -79.7492   29.9315  -71.5195 C.ar      11 UNK        -0.0687 
     10 C10       -80.5467   30.2267  -72.6286 C.ar      11 UNK        -0.0823 
     11 C11       -79.9789   30.7495  -73.7945 C.ar      11 UNK        -0.0830 
     12 C12       -78.5969   30.9681  -73.8508 C.ar      11 UNK        -0.1021 
     13 C13       -77.7883   30.6624  -72.7508 C.ar      11 UNK        -0.0753 
     14 C14       -78.3718   30.1540  -71.5872 C.ar      11 UNK        -0.0933 
     15 C15       -76.2852   30.8860  -72.7959 C.3       11 UNK         0.0166 
     16 S16       -75.4079   29.3153  -73.0569 S.3       11 UNK        -0.2615 
     17 C17       -73.8010   29.6754  -72.2631 C.3       11 UNK        -0.0865 
     18 CA        -72.6082   28.8126  -72.7602 C.3       10 UNK         0.0862 
     19 C         -72.8379   27.2794  -72.6570 C.2       10 UNK         0.5551 
     20 N         -72.9425   26.7476  -71.4478 N.am      10 UNK        -0.7319 
     21 O         -72.9177   26.5721  -73.6646 O.2       10 UNK        -0.5018 
     22 N         -72.2010   29.1396  -74.1241 N.am      10 UNK        -0.4509 
     23 C         -71.2705   30.0217  -74.4954 C.2       10 UNK         0.4899 
     24 O         -70.7970   30.8810  -73.7509 O.2       10 UNK        -0.4839 
     25 CA        -70.7635   29.8662  -75.9464 C.3       9 UNK         0.0222 
     26 CB        -69.4118   30.5686  -76.1933 C.3       9 UNK        -0.1966 
     27 N         -70.7173   28.4538  -76.3670 N.am      9 UNK        -0.4218 
     28 C         -70.0059   27.4639  -75.7962 C.2       9 UNK         0.5020 
     29 O         -69.1702   27.6417  -74.9083 O.2       9 UNK        -0.5274 
     30 CA        -70.3421   26.0336  -76.2501 C.3       8 UNK         0.0270 
     31 CB        -69.7242   24.9507  -75.3446 C.3       8 UNK        -0.1976 
     32 N         -71.7959   25.8708  -76.2693 N.am      8 UNK        -0.4313 
     33 C         -72.5058   25.4305  -77.3133 C.2       8 UNK         0.5041 
     34 O         -72.0102   24.9727  -78.3440 O.2       8 UNK        -0.5577 
     35 CA        -74.0344   25.5765  -77.2090 C.3       7 UNK         0.0284 
     36 CB        -74.6064   24.4744  -76.3015 C.3       7 UNK        -0.1958 
     37 N         -74.4994   26.8966  -76.7485 N.am      7 UNK        -0.4454 
     38 C         -74.1054   28.0937  -77.2196 C.2       7 UNK         0.5089 
     39 O         -73.1932   28.2464  -78.0336 O.2       7 UNK        -0.5125 
     40 CA        -74.8238   29.3410  -76.6622 C.3       6 UNK         0.0408 
     41 CB        -74.6810   30.5773  -77.5759 C.3       6 UNK        -0.1791 
     42 N         -76.2296   29.1066  -76.3141 N.am      6 UNK        -0.4762 
     43 C         -77.2108   28.7545  -77.1565 C.2       6 UNK         0.5007 
     44 O         -77.0577   28.5850  -78.3683 O.2       6 UNK        -0.5032 
     45 CA        -78.6081   28.5503  -76.5431 C.3       5 UNK         0.0783 
     46 C46       -79.5679   29.6656  -77.0185 C.3       11 UNK        -0.0857 
     47 S47       -81.1296   29.6742  -76.0811 S.3       11 UNK        -0.2512 
     48 C48       -80.8739   31.0993  -74.9754 C.3       11 UNK         0.0225 
     49 N         -79.0878   27.2125  -76.8946 N.am      5 UNK        -0.4615 
     50 C         -78.5527   26.0902  -76.4043 C.2       4 UNK         0.5053 
     51 O         -77.7202   26.0722  -75.4938 O.2       4 UNK        -0.5105 
     52 CA        -78.9591   24.7804  -77.0865 C.3       4 UNK         0.0263 
     53 CB        -78.1470   24.6097  -78.3903 C.3       4 UNK        -0.1981 
     54 N         -78.7078   23.6975  -76.1384 N.am      4 UNK        -0.4224 
     55 C         -78.8465   22.3806  -76.3279 C.2       3 UNK         0.4895 
     56 O         -79.2017   21.8568  -77.3841 O.2       3 UNK        -0.5091 
     57 CA        -78.5732   21.4984  -75.0993 C.3       3 UNK         0.0250 
     58 CB        -77.0868   21.5358  -74.7024 C.3       3 UNK        -0.1996 
     59 N         -79.4138   21.8893  -73.9629 N.am      3 UNK        -0.4254 
     60 C         -80.7435   21.6988  -73.9209 C.2       2 UNK         0.5004 
     61 O         -81.3735   21.1045  -74.7969 O.2       2 UNK        -0.5226 
     62 CA        -81.5194   22.2425  -72.7068 C.3       2 UNK         0.0269 
     63 CB        -81.8752   21.1001  -71.7406 C.3       2 UNK        -0.1926 
     64 N         -80.8180   23.2914  -71.9646 N.am      2 UNK        -0.4687 
     65 C         -80.5834   24.5295  -72.4194 C.2       1 UNK         0.5165 
     66 O         -80.9417   24.9371  -73.5262 O.2       1 UNK        -0.5079 
     67 H67       -75.9006   24.8566  -73.6939 H         1 UNK         0.0900 
     68 H68       -75.4049   25.2482  -72.0453 H         1 UNK         0.0900 
     69 H69       -76.2343   26.4550  -73.0362 H         1 UNK         0.0900 
     70 H70       -78.2936   26.7478  -72.1896 H         1 UNK         0.2959 
     71 H71       -79.6375   24.9242  -70.5352 H         1 UNK         0.1079 
     72 H72       -81.6157   26.4778  -70.8066 H         1 UNK         0.0837 
     73 H73       -80.7368   27.3424  -72.0453 H         1 UNK         0.0837 
     74 H74       -80.1121   30.0654  -69.4146 H         1 UNK         0.0685 
     75 H75       -81.4661   29.4092  -70.3000 H         1 UNK         0.0685 
     76 H76       -81.6145   30.0601  -72.5825 H         1 UNK         0.1434 
     77 H77       -78.1518   31.3781  -74.7468 H         1 UNK         0.1329 
     78 H78       -77.7505   29.9237  -70.7322 H         1 UNK         0.1335 
     79 H79       -75.9636   31.3386  -71.8565 H         1 UNK         0.0680 
     80 H80       -76.0157   31.5870  -73.5875 H         1 UNK         0.0680 
     81 H81       -73.9254   29.5466  -71.1868 H         1 UNK         0.1032 
     82 H82       -73.5617   30.7307  -72.4041 H         1 UNK         0.1032 
     83 H83       -71.7547   29.0223  -72.1121 H         1 UNK         0.0461 
     84 H84       -72.8736   27.3143  -70.6176 H         1 UNK         0.3453 
     85 H85       -73.0776   25.7531  -71.3647 H         1 UNK         0.3453 
     86 H86       -72.4891   28.4413  -74.7925 H         1 UNK         0.2984 
     87 H87       -71.5056   30.3500  -76.5820 H         1 UNK         0.0554 
     88 H88       -69.4901   31.6407  -76.0088 H         1 UNK         0.0847 
     89 H89       -69.0810   30.4417  -77.2240 H         1 UNK         0.0847 
     90 H90       -68.6282   30.1849  -75.5393 H         1 UNK         0.0847 
     91 H91       -71.3808   28.2009  -77.0949 H         1 UNK         0.3141 
     92 H92       -69.9273   25.9214  -77.2540 H         1 UNK         0.0743 
     93 H93       -68.6364   25.0285  -75.3245 H         1 UNK         0.0784 
     94 H94       -70.0802   25.0364  -74.3168 H         1 UNK         0.0784 
     95 H95       -69.9703   23.9505  -75.7016 H         1 UNK         0.0784 
     96 H96       -72.2915   26.1663  -75.4301 H         1 UNK         0.3213 
     97 H97       -74.4438   25.4364  -78.2115 H         1 UNK         0.0855 
     98 H98       -74.2187   24.5514  -75.2852 H         1 UNK         0.0814 
     99 H99       -74.3389   23.4851  -76.6752 H         1 UNK         0.0814 
    100 H100      -75.6931   24.5141  -76.2508 H         1 UNK         0.0814 
    101 H101      -75.2566   26.8879  -76.0782 H         1 UNK         0.3105 
    102 H102      -74.3209   29.5842  -75.7288 H         1 UNK         0.0547 
    103 H103      -73.6340   30.8485  -77.7122 H         1 UNK         0.0837 
    104 H104      -75.0978   30.4001  -78.5677 H         1 UNK         0.0837 
    105 H105      -75.1840   31.4454  -77.1503 H         1 UNK         0.0837 
    106 H106      -76.4411   29.1863  -75.3269 H         1 UNK         0.3020 
    107 H107      -78.5249   28.6018  -75.4547 H         1 UNK         0.1245 
    108 H108      -79.8030   29.5445  -78.0777 H         1 UNK         0.0781 
    109 H109      -79.0982   30.6472  -76.9328 H         1 UNK         0.0781 
    110 H110      -81.8469   31.4315  -74.6099 H         1 UNK         0.0836 
    111 H111      -80.4654   31.9434  -75.5333 H         1 UNK         0.0836 
    112 H112      -79.7465   27.1589  -77.6573 H         1 UNK         0.3022 
    113 H113      -80.0274   24.8093  -77.3080 H         1 UNK         0.0747 
    114 H114      -78.4961   23.7622  -78.9791 H         1 UNK         0.0793 
    115 H115      -77.0857   24.4632  -78.1901 H         1 UNK         0.0793 
    116 H116      -78.2357   25.4892  -79.0296 H         1 UNK         0.0793 
    117 H117      -78.4075   24.0327  -75.2311 H         1 UNK         0.3047 
    118 H118      -78.8208   20.4684  -75.3658 H         1 UNK         0.0822 
    119 H119      -76.8852   20.8714  -73.8620 H         1 UNK         0.0807 
    120 H120      -76.7604   22.5366  -74.4200 H         1 UNK         0.0807 
    121 H121      -76.4556   21.2115  -75.5308 H         1 UNK         0.0807 
    122 H122      -78.9638   22.3941  -73.2061 H         1 UNK         0.2946 
    123 H123      -82.4494   22.6685  -73.0909 H         1 UNK         0.1144 
    124 H124      -82.4307   20.3133  -72.2532 H         1 UNK         0.0793 
    125 H125      -82.5014   21.4526  -70.9207 H         1 UNK         0.0793 
    126 H126      -80.9833   20.6419  -71.3112 H         1 UNK         0.0793 
    127 H127      -80.4560   23.0313  -71.0579 H         1 UNK         0.2896 
@<TRIPOS>BOND
     1    1    2 1    
     2    1   67 1    
     3    1   68 1    
     4    1   69 1    
     5    2    3 2    
     6    2    4 am   BACKBONE|DICT|INTERRES
     7    4    5 1    
     8    4   70 1    
     9    5    6 1    
    10    5   65 1    
    11    5   71 1    
    12    6    7 1    
    13    6   72 1    
    14    6   73 1    
    15    7    8 1    
    16    8    9 1    
    17    8   74 1    
    18    8   75 1    
    19    9   10 ar   
    20    9   14 ar   
    21   10   11 ar   
    22   10   76 1    
    23   11   12 ar   
    24   11   48 1    
    25   12   13 ar   
    26   12   77 1    
    27   13   14 ar   
    28   13   15 1    
    29   14   78 1    
    30   15   16 1    
    31   15   79 1    
    32   15   80 1    
    33   16   17 1    
    34   17   18 1    
    35   17   81 1    
    36   17   82 1    
    37   18   19 1    
    38   18   22 1    
    39   18   83 1    
    40   19   20 am   BACKBONE|DICT|INTERRES
    41   19   21 2    
    42   20   84 1    
    43   20   85 1    
    44   22   23 am   BACKBONE|DICT|INTERRES
    45   22   86 1    
    46   23   24 2    
    47   23   25 1    
    48   25   26 1    
    49   25   27 1    
    50   25   87 1    
    51   26   88 1    
    52   26   89 1    
    53   26   90 1    
    54   27   28 am   BACKBONE|DICT|INTERRES
    55   27   91 1    
    56   28   29 2    
    57   28   30 1    
    58   30   31 1    
    59   30   32 1    
    60   30   92 1    
    61   31   93 1    
    62   31   94 1    
    63   31   95 1    
    64   32   33 am   BACKBONE|DICT|INTERRES
    65   32   96 1    
    66   33   34 2    
    67   33   35 1    
    68   35   36 1    
    69   35   37 1    
    70   35   97 1    
    71   36   98 1    
    72   36   99 1    
    73   36  100 1    
    74   37   38 am   BACKBONE|DICT|INTERRES
    75   37  101 1    
    76   38   39 2    
    77   38   40 1    
    78   40   41 1    
    79   40   42 1    
    80   40  102 1    
    81   41  103 1    
    82   41  104 1    
    83   41  105 1    
    84   42   43 am   BACKBONE|DICT|INTERRES
    85   42  106 1    
    86   43   44 2    
    87   43   45 1    
    88   45   46 1    
    89   45   49 1    
    90   45  107 1    
    91   46   47 1    
    92   46  108 1    
    93   46  109 1    
    94   47   48 1    
    95   48  110 1    
    96   48  111 1    
    97   49   50 am   BACKBONE|DICT|INTERRES
    98   49  112 1    
    99   50   51 2    
   100   50   52 1    
   101   52   53 1    
   102   52   54 1    
   103   52  113 1    
   104   53  114 1    
   105   53  115 1    
   106   53  116 1    
   107   54   55 am   BACKBONE|DICT|INTERRES
   108   54  117 1    
   109   55   56 2    
   110   55   57 1    
   111   57   58 1    
   112   57   59 1    
   113   57  118 1    
   114   58  119 1    
   115   58  120 1    
   116   58  121 1    
   117   59   60 am   BACKBONE|DICT|INTERRES
   118   59  122 1    
   119   60   61 2    
   120   60   62 1    
   121   62   63 1    
   122   62   64 1    
   123   62  123 1    
   124   63  124 1    
   125   63  125 1    
   126   63  126 1    
   127   64   65 am   BACKBONE|DICT|INTERRES
   128   64  127 1    
   129   65   66 2    
@<TRIPOS>SUBSTRUCTURE
     1 UNK         1 GROUP             0       ****    0 ROOT    
