@<TRIPOS>MOLECULE
3R135
127   129    1
SMALL
USER_CHARGES


@<TRIPOS>ATOM
      1 CA        -79.1914   30.7505  -75.8652 C.3       0 UNK        -0.1998 
      2 C         -79.2790   29.5902  -74.8864 C.2       0 UNK         0.4909 
      3 O         -78.2979   28.8738  -74.6960 O.2       0 UNK        -0.5240 
      4 N         -80.4496   29.4059  -74.2653 N.am      1 UNK        -0.4739 
      5 CA        -80.7430   28.2897  -73.3617 C.3       1 UNK         0.0864 
      6 C6        -81.8482   28.6414  -72.3329 C.3       11 UNK        -0.0881 
      7 S7        -81.5177   30.1731  -71.3950 S.3       11 UNK        -0.2682 
      8 C8        -80.7859   29.5382  -69.8546 C.3       11 UNK         0.0289 
      9 C9        -79.3250   29.1527  -70.0358 C.ar      11 UNK        -0.0687 
     10 C10       -78.9448   27.8084  -70.0778 C.ar      11 UNK        -0.0823 
     11 C11       -77.5982   27.4588  -70.2171 C.ar      11 UNK        -0.0830 
     12 C12       -76.6303   28.4643  -70.2968 C.ar      11 UNK        -0.1021 
     13 C13       -76.9950   29.8152  -70.2603 C.ar      11 UNK        -0.0753 
     14 C14       -78.3469   30.1483  -70.1301 C.ar      11 UNK        -0.0933 
     15 C15       -75.9494   30.9294  -70.2792 C.3       11 UNK         0.0166 
     16 S16       -74.4564   30.5665  -71.2661 S.3       11 UNK        -0.2615 
     17 C17       -74.9592   31.0488  -72.9572 C.3       11 UNK        -0.0865 
     18 CA        -74.6516   29.9768  -74.0482 C.3       10 UNK         0.0862 
     19 C         -75.0089   30.4711  -75.4854 C.2       10 UNK         0.5551 
     20 N         -74.3250   30.0156  -76.5298 N.am      10 UNK        -0.7319 
     21 O         -75.9105   31.2858  -75.6621 O.2       10 UNK        -0.5018 
     22 N         -73.2988   29.3973  -73.9521 N.am      10 UNK        -0.4509 
     23 C         -72.1446   30.0689  -74.0704 C.2       10 UNK         0.4899 
     24 O         -72.0665   31.2904  -74.2065 O.2       10 UNK        -0.4839 
     25 CA        -70.8420   29.2468  -74.0397 C.3       9 UNK         0.0222 
     26 CB        -70.2086   29.3114  -72.6400 C.3       9 UNK        -0.1966 
     27 N         -70.9833   27.8411  -74.4380 N.am      9 UNK        -0.4218 
     28 C         -71.3908   27.4028  -75.6379 C.2       9 UNK         0.5020 
     29 O         -71.7446   28.1539  -76.5503 O.2       9 UNK        -0.5274 
     30 CA        -71.3888   25.8785  -75.8570 C.3       8 UNK         0.0270 
     31 CB        -71.5360   25.0660  -74.5530 C.3       8 UNK        -0.1976 
     32 N         -72.4848   25.5186  -76.7517 N.am      8 UNK        -0.4313 
     33 C         -72.3647   24.9558  -77.9600 C.2       8 UNK         0.5041 
     34 O         -71.2825   24.6514  -78.4657 O.2       8 UNK        -0.5577 
     35 CA        -73.6585   24.6496  -78.7428 C.3       7 UNK         0.0284 
     36 CB        -73.8847   23.1306  -78.8259 C.3       7 UNK        -0.1958 
     37 N         -74.8557   25.2726  -78.1731 N.am      7 UNK        -0.4454 
     38 C         -75.1578   26.5754  -78.2529 C.2       7 UNK         0.5089 
     39 O         -74.5131   27.3888  -78.9141 O.2       7 UNK        -0.5125 
     40 CA        -76.3662   27.0551  -77.4303 C.3       6 UNK         0.0408 
     41 CB        -77.6545   26.9840  -78.2636 C.3       6 UNK        -0.1791 
     42 N         -76.5587   26.3087  -76.1852 N.am      6 UNK        -0.4762 
     43 C         -75.6957   26.2479  -75.1599 C.2       6 UNK         0.5007 
     44 O         -74.5963   26.7994  -75.1469 O.2       6 UNK        -0.5032 
     45 CA        -76.1215   25.3774  -73.9666 C.3       5 UNK         0.0783 
     46 C46       -77.1726   26.1269  -73.1139 C.3       11 UNK        -0.0857 
     47 S47       -77.8475   25.1396  -71.7354 S.3       11 UNK        -0.2512 
     48 C48       -77.1792   25.9957  -70.2739 C.3       11 UNK         0.0225 
     49 N         -76.5914   24.0763  -74.4471 N.am      5 UNK        -0.4615 
     50 C         -75.7937   23.0943  -74.8867 C.2       4 UNK         0.5053 
     51 O         -74.5651   23.1554  -74.8730 O.2       4 UNK        -0.5105 
     52 CA        -76.4755   21.8317  -75.4452 C.3       4 UNK         0.0263 
     53 CB        -76.6354   20.7775  -74.3384 C.3       4 UNK        -0.1981 
     54 N         -77.7829   22.0980  -76.0513 N.am      4 UNK        -0.4224 
     55 C         -77.9691   22.7906  -77.1843 C.2       3 UNK         0.4895 
     56 O         -77.0529   23.2408  -77.8712 O.2       3 UNK        -0.5091 
     57 CA        -79.4290   23.0820  -77.5816 C.3       3 UNK         0.0250 
     58 CB        -80.0251   21.8989  -78.3607 C.3       3 UNK        -0.1996 
     59 N         -80.2970   23.4137  -76.4417 N.am      3 UNK        -0.4254 
     60 C         -80.0695   24.4252  -75.5918 C.2       2 UNK         0.5004 
     61 O         -79.0927   25.1696  -75.6830 O.2       2 UNK        -0.5226 
     62 CA        -81.0520   24.5925  -74.4183 C.3       2 UNK         0.0269 
     63 CB        -80.9051   23.4314  -73.4192 C.3       2 UNK        -0.1926 
     64 N         -80.8284   25.8561  -73.7060 N.am      2 UNK        -0.4687 
     65 C         -81.1635   27.0591  -74.1906 C.2       1 UNK         0.5165 
     66 O         -81.8178   27.2149  -75.2264 O.2       1 UNK        -0.5079 
     67 H67       -78.6363   31.5744  -75.4180 H         1 UNK         0.0900 
     68 H68       -80.1771   31.1159  -76.1525 H         1 UNK         0.0900 
     69 H69       -78.6679   30.4398  -76.7692 H         1 UNK         0.0900 
     70 H70       -81.2287   30.0140  -74.4712 H         1 UNK         0.2959 
     71 H71       -79.8313   28.0413  -72.8136 H         1 UNK         0.1079 
     72 H72       -82.8071   28.7755  -72.8379 H         1 UNK         0.0837 
     73 H73       -81.9941   27.8164  -71.6332 H         1 UNK         0.0837 
     74 H74       -80.8553   30.3149  -69.0916 H         1 UNK         0.0685 
     75 H75       -81.3729   28.6974  -69.4818 H         1 UNK         0.0685 
     76 H76       -79.6936   27.0317  -70.0033 H         1 UNK         0.1434 
     77 H77       -75.5880   28.1904  -70.3803 H         1 UNK         0.1329 
     78 H78       -78.6428   31.1876  -70.0844 H         1 UNK         0.1335 
     79 H79       -76.3882   31.8650  -70.6295 H         1 UNK         0.0680 
     80 H80       -75.6364   31.1078  -69.2498 H         1 UNK         0.0680 
     81 H81       -74.4600   31.9888  -73.1976 H         1 UNK         0.1032 
     82 H82       -76.0281   31.2705  -72.9604 H         1 UNK         0.1032 
     83 H83       -75.3315   29.1443  -73.8644 H         1 UNK         0.0461 
     84 H84       -74.5579   30.3402  -77.4538 H         1 UNK         0.3453 
     85 H85       -73.5760   29.3455  -76.4043 H         1 UNK         0.3453 
     86 H86       -73.2680   28.3886  -73.9076 H         1 UNK         0.2984 
     87 H87       -70.1523   29.7137  -74.7459 H         1 UNK         0.0554 
     88 H88       -69.2338   28.8238  -72.6189 H         1 UNK         0.0847 
     89 H89       -70.8414   28.8369  -71.8888 H         1 UNK         0.0847 
     90 H90       -70.0565   30.3458  -72.3280 H         1 UNK         0.0847 
     91 H91       -70.7216   27.1514  -73.7485 H         1 UNK         0.3141 
     92 H92       -70.4281   25.6280  -76.3108 H         1 UNK         0.0743 
     93 H93       -70.6716   25.1885  -73.8997 H         1 UNK         0.0784 
     94 H94       -72.4276   25.3538  -73.9939 H         1 UNK         0.0784 
     95 H95       -71.6184   23.9997  -74.7661 H         1 UNK         0.0784 
     96 H96       -73.4027   25.8178  -76.4386 H         1 UNK         0.3213 
     97 H97       -73.5218   25.0320  -79.7566 H         1 UNK         0.0855 
     98 H98       -73.0249   22.6283  -79.2713 H         1 UNK         0.0814 
     99 H99       -74.7523   22.8915  -79.4413 H         1 UNK         0.0814 
    100 H100      -74.0435   22.6944  -77.8386 H         1 UNK         0.0814 
    101 H101      -75.4991   24.6610  -77.6819 H         1 UNK         0.3105 
    102 H102      -76.1966   28.0978  -77.1601 H         1 UNK         0.0547 
    103 H103      -77.5610   27.5700  -79.1787 H         1 UNK         0.0837 
    104 H104      -77.8899   25.9591  -78.5520 H         1 UNK         0.0837 
    105 H105      -78.5056   27.3794  -77.7084 H         1 UNK         0.0837 
    106 H106      -77.4604   25.8459  -76.0722 H         1 UNK         0.3020 
    107 H107      -75.2379   25.2130  -73.3453 H         1 UNK         0.1245 
    108 H108      -78.0184   26.4339  -73.7277 H         1 UNK         0.0781 
    109 H109      -76.7424   27.0552  -72.7365 H         1 UNK         0.0781 
    110 H110      -76.0924   25.8983  -70.2754 H         1 UNK         0.0836 
    111 H111      -77.5305   25.4878  -69.3747 H         1 UNK         0.0836 
    112 H112      -77.5920   23.9821  -74.5470 H         1 UNK         0.3022 
    113 H113      -75.8226   21.4211  -76.2186 H         1 UNK         0.0747 
    114 H114      -77.0460   19.8473  -74.7316 H         1 UNK         0.0793 
    115 H115      -75.6716   20.5384  -73.8864 H         1 UNK         0.0793 
    116 H116      -77.2920   21.1255  -73.5397 H         1 UNK         0.0793 
    117 H117      -78.5953   21.7652  -75.5533 H         1 UNK         0.3047 
    118 H118      -79.4158   23.9511  -78.2426 H         1 UNK         0.0822 
    119 H119      -81.0194   22.1343  -78.7407 H         1 UNK         0.0807 
    120 H120      -80.1042   21.0038  -77.7425 H         1 UNK         0.0807 
    121 H121      -79.4037   21.6467  -79.2214 H         1 UNK         0.0807 
    122 H122      -81.1137   22.8342  -76.3087 H         1 UNK         0.2946 
    123 H123      -82.0678   24.5915  -74.8206 H         1 UNK         0.1144 
    124 H124      -81.5712   23.5569  -72.5653 H         1 UNK         0.0793 
    125 H125      -79.8867   23.3489  -73.0386 H         1 UNK         0.0793 
    126 H126      -81.1572   22.4761  -73.8810 H         1 UNK         0.0793 
    127 H127      -80.2677   25.8012  -72.8676 H         1 UNK         0.2896 
@<TRIPOS>BOND
     1    1    2 1    
     2    1   67 1    
     3    1   68 1    
     4    1   69 1    
     5    2    3 2    
     6    2    4 am   BACKBONE|DICT|INTERRES
     7    4    5 1    
     8    4   70 1    
     9    5    6 1    
    10    5   65 1    
    11    5   71 1    
    12    6    7 1    
    13    6   72 1    
    14    6   73 1    
    15    7    8 1    
    16    8    9 1    
    17    8   74 1    
    18    8   75 1    
    19    9   10 ar   
    20    9   14 ar   
    21   10   11 ar   
    22   10   76 1    
    23   11   12 ar   
    24   11   48 1    
    25   12   13 ar   
    26   12   77 1    
    27   13   14 ar   
    28   13   15 1    
    29   14   78 1    
    30   15   16 1    
    31   15   79 1    
    32   15   80 1    
    33   16   17 1    
    34   17   18 1    
    35   17   81 1    
    36   17   82 1    
    37   18   19 1    
    38   18   22 1    
    39   18   83 1    
    40   19   20 am   BACKBONE|DICT|INTERRES
    41   19   21 2    
    42   20   84 1    
    43   20   85 1    
    44   22   23 am   BACKBONE|DICT|INTERRES
    45   22   86 1    
    46   23   24 2    
    47   23   25 1    
    48   25   26 1    
    49   25   27 1    
    50   25   87 1    
    51   26   88 1    
    52   26   89 1    
    53   26   90 1    
    54   27   28 am   BACKBONE|DICT|INTERRES
    55   27   91 1    
    56   28   29 2    
    57   28   30 1    
    58   30   31 1    
    59   30   32 1    
    60   30   92 1    
    61   31   93 1    
    62   31   94 1    
    63   31   95 1    
    64   32   33 am   BACKBONE|DICT|INTERRES
    65   32   96 1    
    66   33   34 2    
    67   33   35 1    
    68   35   36 1    
    69   35   37 1    
    70   35   97 1    
    71   36   98 1    
    72   36   99 1    
    73   36  100 1    
    74   37   38 am   BACKBONE|DICT|INTERRES
    75   37  101 1    
    76   38   39 2    
    77   38   40 1    
    78   40   41 1    
    79   40   42 1    
    80   40  102 1    
    81   41  103 1    
    82   41  104 1    
    83   41  105 1    
    84   42   43 am   BACKBONE|DICT|INTERRES
    85   42  106 1    
    86   43   44 2    
    87   43   45 1    
    88   45   46 1    
    89   45   49 1    
    90   45  107 1    
    91   46   47 1    
    92   46  108 1    
    93   46  109 1    
    94   47   48 1    
    95   48  110 1    
    96   48  111 1    
    97   49   50 am   BACKBONE|DICT|INTERRES
    98   49  112 1    
    99   50   51 2    
   100   50   52 1    
   101   52   53 1    
   102   52   54 1    
   103   52  113 1    
   104   53  114 1    
   105   53  115 1    
   106   53  116 1    
   107   54   55 am   BACKBONE|DICT|INTERRES
   108   54  117 1    
   109   55   56 2    
   110   55   57 1    
   111   57   58 1    
   112   57   59 1    
   113   57  118 1    
   114   58  119 1    
   115   58  120 1    
   116   58  121 1    
   117   59   60 am   BACKBONE|DICT|INTERRES
   118   59  122 1    
   119   60   61 2    
   120   60   62 1    
   121   62   63 1    
   122   62   64 1    
   123   62  123 1    
   124   63  124 1    
   125   63  125 1    
   126   63  126 1    
   127   64   65 am   BACKBONE|DICT|INTERRES
   128   64  127 1    
   129   65   66 2    
@<TRIPOS>SUBSTRUCTURE
     1 UNK         1 GROUP             0       ****    0 ROOT    
