@<TRIPOS>MOLECULE
3R135
127   129    1
SMALL
USER_CHARGES


@<TRIPOS>ATOM
      1 CA        -84.7158   28.2030  -72.2357 C.3       0 UNK        -0.1998 
      2 C         -84.1767   28.1569  -73.6574 C.2       0 UNK         0.4909 
      3 O         -84.9254   27.8551  -74.5873 O.2       0 UNK        -0.5240 
      4 N         -82.8832   28.4563  -73.8333 N.am      1 UNK        -0.4739 
      5 CA        -82.1778   28.4289  -75.1217 C.3       1 UNK         0.0864 
      6 C6        -80.8533   29.2342  -75.0713 C.3       11 UNK        -0.0881 
      7 S7        -79.7461   28.7372  -73.7079 S.3       11 UNK        -0.2682 
      8 C8        -78.2983   29.7925  -74.0280 C.3       11 UNK         0.0289 
      9 C9        -77.2543   29.6194  -72.9347 C.ar      11 UNK        -0.0687 
     10 C10       -76.6365   28.3806  -72.7569 C.ar      11 UNK        -0.0823 
     11 C11       -75.7163   28.1743  -71.7262 C.ar      11 UNK        -0.0830 
     12 C12       -75.3832   29.2453  -70.8918 C.ar      11 UNK        -0.1021 
     13 C13       -75.9515   30.5067  -71.0916 C.ar      11 UNK        -0.0753 
     14 C14       -76.9019   30.6845  -72.1021 C.ar      11 UNK        -0.0933 
     15 C15       -75.5344   31.6828  -70.2240 C.3       11 UNK         0.0166 
     16 S16       -74.3095   32.7333  -71.0689 S.3       11 UNK        -0.2615 
     17 C17       -72.7578   31.7922  -70.8491 C.3       11 UNK        -0.0865 
     18 CA        -71.8995   31.7468  -72.1496 C.3       10 UNK         0.0862 
     19 C         -70.4209   31.2841  -71.9521 C.2       10 UNK         0.5551 
     20 N         -69.9154   31.1870  -70.7284 N.am      10 UNK        -0.7319 
     21 O         -69.6966   31.0718  -72.9226 O.2       10 UNK        -0.5018 
     22 N         -72.5762   31.0437  -73.2544 N.am      10 UNK        -0.4509 
     23 C         -72.7418   29.7182  -73.3743 C.2       10 UNK         0.4899 
     24 O         -72.3775   28.9009  -72.5255 O.2       10 UNK        -0.4839 
     25 CA        -73.4697   29.2134  -74.6399 C.3       9 UNK         0.0222 
     26 CB        -73.5198   30.2340  -75.7997 C.3       9 UNK        -0.1966 
     27 N         -72.9536   27.9192  -75.1009 N.am      9 UNK        -0.4218 
     28 C         -71.7158   27.6426  -75.5416 C.2       9 UNK         0.5020 
     29 O         -70.8204   28.4781  -75.6720 O.2       9 UNK        -0.5274 
     30 CA        -71.4312   26.1801  -75.9215 C.3       8 UNK         0.0270 
     31 CB        -71.1574   25.3377  -74.6638 C.3       8 UNK        -0.1976 
     32 N         -72.5542   25.6025  -76.6622 N.am      8 UNK        -0.4313 
     33 C         -72.6323   25.5169  -77.9975 C.2       8 UNK         0.5041 
     34 O         -71.7106   25.8140  -78.7591 O.2       8 UNK        -0.5577 
     35 CA        -73.9672   25.0260  -78.5957 C.3       7 UNK         0.0284 
     36 CB        -73.9361   23.5025  -78.7969 C.3       7 UNK        -0.1958 
     37 N         -75.1367   25.3872  -77.7878 N.am      7 UNK        -0.4454 
     38 C         -75.5258   26.6461  -77.5390 C.2       7 UNK         0.5089 
     39 O         -75.0335   27.6306  -78.0895 O.2       7 UNK        -0.5125 
     40 CA        -76.6098   26.8643  -76.4674 C.3       6 UNK         0.0408 
     41 CB        -77.9655   27.1715  -77.1190 C.3       6 UNK        -0.1791 
     42 N         -76.7710   25.7747  -75.4956 N.am      6 UNK        -0.4762 
     43 C         -75.8225   25.3229  -74.6605 C.2       6 UNK         0.5007 
     44 O         -74.6451   25.6735  -74.7289 O.2       6 UNK        -0.5032 
     45 CA        -76.2530   24.3074  -73.5870 C.3       5 UNK         0.0783 
     46 C46       -77.0932   24.9599  -72.4525 C.3       11 UNK        -0.0857 
     47 S47       -76.1319   25.4869  -70.9851 S.3       11 UNK        -0.2512 
     48 C48       -75.0247   26.8274  -71.5492 C.3       11 UNK         0.0225 
     49 N         -76.9775   23.2194  -74.2406 N.am      5 UNK        -0.4615 
     50 C         -76.4185   22.0713  -74.6437 C.2       4 UNK         0.5053 
     51 O         -75.2528   21.7545  -74.4065 O.2       4 UNK        -0.5105 
     52 CA        -77.3005   21.1128  -75.4652 C.3       4 UNK         0.0263 
     53 CB        -77.9546   20.0673  -74.5477 C.3       4 UNK        -0.1981 
     54 N         -78.3412   21.7880  -76.2460 N.am      4 UNK        -0.4224 
     55 C         -78.1138   22.6764  -77.2241 C.2       3 UNK         0.4895 
     56 O         -76.9922   23.0207  -77.5961 O.2       3 UNK        -0.5091 
     57 CA        -79.3495   23.3257  -77.8675 C.3       3 UNK         0.0250 
     58 CB        -79.8566   22.4643  -79.0351 C.3       3 UNK        -0.1996 
     59 N         -80.4603   23.6010  -76.9456 N.am      3 UNK        -0.4254 
     60 C         -80.3878   24.3072  -75.8073 C.2       2 UNK         0.5004 
     61 O         -79.3366   24.7133  -75.3064 O.2       2 UNK        -0.5226 
     62 CA        -81.7145   24.5833  -75.0835 C.3       2 UNK         0.0269 
     63 CB        -81.7936   23.7652  -73.7845 C.3       2 UNK        -0.1926 
     64 N         -81.8807   26.0043  -74.7673 N.am      2 UNK        -0.4687 
     65 C         -81.9695   26.9972  -75.6667 C.2       1 UNK         0.5165 
     66 O         -81.9268   26.8198  -76.8854 O.2       1 UNK        -0.5079 
     67 H67       -83.9480   28.4910  -71.5177 H         1 UNK         0.0900 
     68 H68       -85.0992   27.2245  -71.9481 H         1 UNK         0.0900 
     69 H69       -85.5311   28.9226  -72.1668 H         1 UNK         0.0900 
     70 H70       -82.3091   28.6985  -73.0371 H         1 UNK         0.2959 
     71 H71       -82.8237   28.9272  -75.8486 H         1 UNK         0.1079 
     72 H72       -80.3186   29.1626  -76.0203 H         1 UNK         0.0837 
     73 H73       -81.0832   30.2933  -74.9437 H         1 UNK         0.0837 
     74 H74       -77.8623   29.5341  -74.9938 H         1 UNK         0.0685 
     75 H75       -78.6195   30.8331  -74.0950 H         1 UNK         0.0685 
     76 H76       -76.8873   27.5836  -73.4336 H         1 UNK         0.1434 
     77 H77       -74.6537   29.1059  -70.1060 H         1 UNK         0.1329 
     78 H78       -77.3556   31.6557  -72.2451 H         1 UNK         0.1335 
     79 H79       -75.1336   31.3423  -69.2679 H         1 UNK         0.0680 
     80 H80       -76.4115   32.2872  -69.9879 H         1 UNK         0.0680 
     81 H81       -72.9663   30.7813  -70.4983 H         1 UNK         0.1032 
     82 H82       -72.2180   32.2903  -70.0429 H         1 UNK         0.1032 
     83 H83       -71.8002   32.7771  -72.4932 H         1 UNK         0.0461 
     84 H84       -68.9518   30.9104  -70.6219 H         1 UNK         0.3453 
     85 H85       -70.4743   31.3695  -69.9110 H         1 UNK         0.3453 
     86 H86       -72.8973   31.6332  -74.0074 H         1 UNK         0.2984 
     87 H87       -74.4984   29.0241  -74.3384 H         1 UNK         0.0554 
     88 H88       -74.0020   29.8043  -76.6778 H         1 UNK         0.0847 
     89 H89       -72.5235   30.5616  -76.0991 H         1 UNK         0.0847 
     90 H90       -74.0965   31.1187  -75.5278 H         1 UNK         0.0847 
     91 H91       -73.5868   27.1333  -74.9729 H         1 UNK         0.3141 
     92 H92       -70.5302   26.1623  -76.5385 H         1 UNK         0.0743 
     93 H93       -72.0165   25.3143  -73.9921 H         1 UNK         0.0784 
     94 H94       -70.9085   24.3088  -74.9241 H         1 UNK         0.0784 
     95 H95       -70.3157   25.7431  -74.1007 H         1 UNK         0.0784 
     96 H96       -73.3798   25.3767  -76.1144 H         1 UNK         0.3213 
     97 H97       -74.0800   25.4984  -79.5738 H         1 UNK         0.0855 
     98 H98       -73.8843   22.9707  -77.8458 H         1 UNK         0.0814 
     99 H99       -73.0699   23.2027  -79.3884 H         1 UNK         0.0814 
    100 H100      -74.8237   23.1553  -79.3261 H         1 UNK         0.0814 
    101 H101      -75.6565   24.6253  -77.3642 H         1 UNK         0.3105 
    102 H102      -76.3090   27.7456  -75.8978 H         1 UNK         0.0547 
    103 H103      -77.9076   28.0684  -77.7370 H         1 UNK         0.0837 
    104 H104      -78.2973   26.3568  -77.7599 H         1 UNK         0.0837 
    105 H105      -78.7380   27.3408  -76.3698 H         1 UNK         0.0837 
    106 H106      -77.7171   25.4039  -75.4003 H         1 UNK         0.3020 
    107 H107      -75.3398   23.9054  -73.1415 H         1 UNK         0.1245 
    108 H108      -77.7870   24.2138  -72.0613 H         1 UNK         0.0781 
    109 H109      -77.7496   25.7548  -72.8048 H         1 UNK         0.0781 
    110 H110      -74.4997   26.5537  -72.4586 H         1 UNK         0.0836 
    111 H111      -74.2358   26.9228  -70.8016 H         1 UNK         0.0836 
    112 H112      -77.9278   23.4273  -74.5267 H         1 UNK         0.3022 
    113 H113      -76.6468   20.5925  -76.1686 H         1 UNK         0.0747 
    114 H114      -78.5098   19.3256  -75.1222 H         1 UNK         0.0793 
    115 H115      -77.2012   19.5289  -73.9707 H         1 UNK         0.0793 
    116 H116      -78.6421   20.5273  -73.8366 H         1 UNK         0.0793 
    117 H117      -79.2995   21.5766  -76.0090 H         1 UNK         0.3047 
    118 H118      -79.0293   24.2832  -78.2785 H         1 UNK         0.0822 
    119 H119      -80.6516   22.9681  -79.5853 H         1 UNK         0.0807 
    120 H120      -80.2414   21.5029  -78.6923 H         1 UNK         0.0807 
    121 H121      -79.0550   22.2594  -79.7465 H         1 UNK         0.0807 
    122 H122      -81.3718   23.2995  -77.2593 H         1 UNK         0.2946 
    123 H123      -82.5434   24.2897  -75.7313 H         1 UNK         0.1144 
    124 H124      -81.6956   22.6978  -73.9871 H         1 UNK         0.0793 
    125 H125      -82.7492   23.9113  -73.2804 H         1 UNK         0.0793 
    126 H126      -81.0005   24.0386  -73.0869 H         1 UNK         0.0793 
    127 H127      -81.8957   26.2548  -73.7899 H         1 UNK         0.2896 
@<TRIPOS>BOND
     1    1    2 1    
     2    1   67 1    
     3    1   68 1    
     4    1   69 1    
     5    2    3 2    
     6    2    4 am   BACKBONE|DICT|INTERRES
     7    4    5 1    
     8    4   70 1    
     9    5    6 1    
    10    5   65 1    
    11    5   71 1    
    12    6    7 1    
    13    6   72 1    
    14    6   73 1    
    15    7    8 1    
    16    8    9 1    
    17    8   74 1    
    18    8   75 1    
    19    9   10 ar   
    20    9   14 ar   
    21   10   11 ar   
    22   10   76 1    
    23   11   12 ar   
    24   11   48 1    
    25   12   13 ar   
    26   12   77 1    
    27   13   14 ar   
    28   13   15 1    
    29   14   78 1    
    30   15   16 1    
    31   15   79 1    
    32   15   80 1    
    33   16   17 1    
    34   17   18 1    
    35   17   81 1    
    36   17   82 1    
    37   18   19 1    
    38   18   22 1    
    39   18   83 1    
    40   19   20 am   BACKBONE|DICT|INTERRES
    41   19   21 2    
    42   20   84 1    
    43   20   85 1    
    44   22   23 am   BACKBONE|DICT|INTERRES
    45   22   86 1    
    46   23   24 2    
    47   23   25 1    
    48   25   26 1    
    49   25   27 1    
    50   25   87 1    
    51   26   88 1    
    52   26   89 1    
    53   26   90 1    
    54   27   28 am   BACKBONE|DICT|INTERRES
    55   27   91 1    
    56   28   29 2    
    57   28   30 1    
    58   30   31 1    
    59   30   32 1    
    60   30   92 1    
    61   31   93 1    
    62   31   94 1    
    63   31   95 1    
    64   32   33 am   BACKBONE|DICT|INTERRES
    65   32   96 1    
    66   33   34 2    
    67   33   35 1    
    68   35   36 1    
    69   35   37 1    
    70   35   97 1    
    71   36   98 1    
    72   36   99 1    
    73   36  100 1    
    74   37   38 am   BACKBONE|DICT|INTERRES
    75   37  101 1    
    76   38   39 2    
    77   38   40 1    
    78   40   41 1    
    79   40   42 1    
    80   40  102 1    
    81   41  103 1    
    82   41  104 1    
    83   41  105 1    
    84   42   43 am   BACKBONE|DICT|INTERRES
    85   42  106 1    
    86   43   44 2    
    87   43   45 1    
    88   45   46 1    
    89   45   49 1    
    90   45  107 1    
    91   46   47 1    
    92   46  108 1    
    93   46  109 1    
    94   47   48 1    
    95   48  110 1    
    96   48  111 1    
    97   49   50 am   BACKBONE|DICT|INTERRES
    98   49  112 1    
    99   50   51 2    
   100   50   52 1    
   101   52   53 1    
   102   52   54 1    
   103   52  113 1    
   104   53  114 1    
   105   53  115 1    
   106   53  116 1    
   107   54   55 am   BACKBONE|DICT|INTERRES
   108   54  117 1    
   109   55   56 2    
   110   55   57 1    
   111   57   58 1    
   112   57   59 1    
   113   57  118 1    
   114   58  119 1    
   115   58  120 1    
   116   58  121 1    
   117   59   60 am   BACKBONE|DICT|INTERRES
   118   59  122 1    
   119   60   61 2    
   120   60   62 1    
   121   62   63 1    
   122   62   64 1    
   123   62  123 1    
   124   63  124 1    
   125   63  125 1    
   126   63  126 1    
   127   64   65 am   BACKBONE|DICT|INTERRES
   128   64  127 1    
   129   65   66 2    
@<TRIPOS>SUBSTRUCTURE
     1 UNK         1 GROUP             0       ****    0 ROOT    
