@<TRIPOS>MOLECULE
3R135
127   129    1
SMALL
USER_CHARGES


@<TRIPOS>ATOM
      1 CA        -78.3449   21.8400  -71.8824 C.3       0 UNK        -0.1998 
      2 C         -79.4235   22.8389  -72.2719 C.2       0 UNK         0.4909 
      3 O         -80.1322   22.6200  -73.2544 O.2       0 UNK        -0.5240 
      4 N         -79.5367   23.9391  -71.5152 N.am      1 UNK        -0.4739 
      5 CA        -80.4824   25.0467  -71.7043 C.3       1 UNK         0.0864 
      6 C6        -80.3098   26.0861  -70.5686 C.3       11 UNK        -0.0881 
      7 S7        -81.6601   27.3079  -70.5004 S.3       11 UNK        -0.2682 
      8 C8        -80.8001   28.7394  -69.7693 C.3       11 UNK         0.0289 
      9 C9        -79.8154   29.3977  -70.7295 C.ar      11 UNK        -0.0687 
     10 C10       -80.2802   30.0022  -71.9015 C.ar      11 UNK        -0.0823 
     11 C11       -79.3965   30.6557  -72.7647 C.ar      11 UNK        -0.0830 
     12 C12       -78.0439   30.7288  -72.4255 C.ar      11 UNK        -0.1021 
     13 C13       -77.5492   30.0889  -71.2833 C.ar      11 UNK        -0.0753 
     14 C14       -78.4468   29.4312  -70.4344 C.ar      11 UNK        -0.0933 
     15 C15       -76.0567   30.1134  -70.9500 C.3       11 UNK         0.0166 
     16 S16       -74.9991   30.0514  -72.4357 S.3       11 UNK        -0.2615 
     17 C17       -73.3104   30.0708  -71.7445 C.3       11 UNK        -0.0865 
     18 CA        -72.4782   28.8150  -72.1307 C.3       10 UNK         0.0862 
     19 C         -72.8138   27.5517  -71.2886 C.2       10 UNK         0.5551 
     20 N         -72.7400   26.3525  -71.8524 N.am      10 UNK        -0.7319 
     21 O         -73.1155   27.6515  -70.1019 O.2       10 UNK        -0.5018 
     22 N         -72.4929   28.5692  -73.5818 N.am      10 UNK        -0.4509 
     23 C         -71.6743   29.1199  -74.4821 C.2       10 UNK         0.4899 
     24 O         -70.7351   29.8637  -74.1927 O.2       10 UNK        -0.4839 
     25 CA        -71.9752   28.7811  -75.9567 C.3       9 UNK         0.0222 
     26 CB        -70.9003   29.3014  -76.9349 C.3       9 UNK        -0.1966 
     27 N         -72.2337   27.3510  -76.1670 N.am      9 UNK        -0.4218 
     28 C         -71.3922   26.3292  -75.9482 C.2       9 UNK         0.5020 
     29 O         -70.2289   26.4597  -75.5653 O.2       9 UNK        -0.5274 
     30 CA        -71.9395   24.9085  -76.1753 C.3       8 UNK         0.0270 
     31 CB        -72.3286   24.2635  -74.8384 C.3       8 UNK        -0.1976 
     32 N         -73.0772   24.8561  -77.1022 N.am      8 UNK        -0.4313 
     33 C         -72.9343   24.9218  -78.4332 C.2       8 UNK         0.5041 
     34 O         -71.8533   25.0929  -78.9988 O.2       8 UNK        -0.5577 
     35 CA        -74.1986   24.7524  -79.2808 C.3       7 UNK         0.0284 
     36 CB        -74.6920   23.2944  -79.2626 C.3       7 UNK        -0.1958 
     37 N         -75.2704   25.6555  -78.8557 N.am      7 UNK        -0.4454 
     38 C         -75.4856   26.8512  -79.4208 C.2       7 UNK         0.5089 
     39 O         -74.7292   27.3655  -80.2458 O.2       7 UNK        -0.5125 
     40 CA        -76.7915   27.5743  -79.0666 C.3       6 UNK         0.0408 
     41 CB        -77.9766   26.9184  -79.7943 C.3       6 UNK        -0.1791 
     42 N         -77.0732   27.6316  -77.6335 N.am      6 UNK        -0.4762 
     43 C         -76.5633   28.5587  -76.8098 C.2       6 UNK         0.5007 
     44 O         -75.6669   29.3410  -77.1291 O.2       6 UNK        -0.5032 
     45 CA        -77.1881   28.6427  -75.4019 C.3       5 UNK         0.0783 
     46 C46       -78.6736   29.1030  -75.4661 C.3       11 UNK        -0.0857 
     47 S47       -78.8397   30.9205  -75.5149 S.3       11 UNK        -0.2512 
     48 C48       -79.9080   31.2647  -74.0678 C.3       11 UNK         0.0225 
     49 N         -77.0493   27.3892  -74.6638 N.am      5 UNK        -0.4615 
     50 C         -75.9019   26.7799  -74.3389 C.2       4 UNK         0.5053 
     51 O         -74.7792   27.2179  -74.5853 O.2       4 UNK        -0.5105 
     52 CA        -76.0419   25.3984  -73.6825 C.3       4 UNK         0.0263 
     53 CB        -76.3529   25.5128  -72.1810 C.3       4 UNK        -0.1981 
     54 N         -77.0503   24.5906  -74.3707 N.am      4 UNK        -0.4224 
     55 C         -76.9105   24.1473  -75.6300 C.2       3 UNK         0.4895 
     56 O         -75.8813   24.2908  -76.2923 O.2       3 UNK        -0.5091 
     57 CA        -78.1310   23.4747  -76.2791 C.3       3 UNK         0.0250 
     58 CB        -78.1011   21.9557  -76.0533 C.3       3 UNK        -0.1996 
     59 N         -79.3985   24.0296  -75.7944 N.am      3 UNK        -0.4254 
     60 C         -79.8629   25.2384  -76.1474 C.2       2 UNK         0.5004 
     61 O         -79.2969   25.9750  -76.9539 O.2       2 UNK        -0.5226 
     62 CA        -81.1387   25.7390  -75.4457 C.3       2 UNK         0.0269 
     63 CB        -82.3913   25.2608  -76.1958 C.3       2 UNK        -0.1926 
     64 N         -81.2236   25.3364  -74.0379 N.am      2 UNK        -0.4687 
     65 C         -80.3264   25.6803  -73.1036 C.2       1 UNK         0.5165 
     66 O         -79.3628   26.4093  -73.3354 O.2       1 UNK        -0.5079 
     67 H67       -77.5223   21.8758  -72.5959 H         1 UNK         0.0900 
     68 H68       -78.7521   20.8293  -71.8808 H         1 UNK         0.0900 
     69 H69       -77.9430   22.0422  -70.8898 H         1 UNK         0.0900 
     70 H70       -78.9107   24.0467  -70.7301 H         1 UNK         0.2959 
     71 H71       -81.4869   24.6250  -71.6280 H         1 UNK         0.1079 
     72 H72       -80.2910   25.5813  -69.6013 H         1 UNK         0.0837 
     73 H73       -79.3491   26.5966  -70.6572 H         1 UNK         0.0837 
     74 H74       -80.3011   28.4254  -68.8511 H         1 UNK         0.0685 
     75 H75       -81.5454   29.4784  -69.4724 H         1 UNK         0.0685 
     76 H76       -81.3342   29.9569  -72.1398 H         1 UNK         0.1434 
     77 H77       -77.3684   31.2590  -73.0815 H         1 UNK         0.1329 
     78 H78       -78.0803   28.9538  -69.5360 H         1 UNK         0.1335 
     79 H79       -75.7996   29.2685  -70.3089 H         1 UNK         0.0680 
     80 H80       -75.8352   31.0213  -70.3878 H         1 UNK         0.0680 
     81 H81       -72.8113   30.9605  -72.1311 H         1 UNK         0.1032 
     82 H82       -73.3437   30.2080  -70.6623 H         1 UNK         0.1032 
     83 H83       -71.4457   29.0282  -71.8484 H         1 UNK         0.0461 
     84 H84       -72.9351   25.5349  -71.2976 H         1 UNK         0.3453 
     85 H85       -72.4391   26.2628  -72.8079 H         1 UNK         0.3453 
     86 H86       -73.2797   28.0142  -73.9170 H         1 UNK         0.2984 
     87 H87       -72.9092   29.2914  -76.1969 H         1 UNK         0.0554 
     88 H88       -70.8015   30.3852  -76.8644 H         1 UNK         0.0847 
     89 H89       -71.1578   29.0666  -77.9676 H         1 UNK         0.0847 
     90 H90       -69.9194   28.8727  -76.7274 H         1 UNK         0.0847 
     91 H91       -73.1886   27.1177  -76.4053 H         1 UNK         0.3141 
     92 H92       -71.1290   24.3123  -76.6010 H         1 UNK         0.0743 
     93 H93       -71.4486   24.1136  -74.2114 H         1 UNK         0.0784 
     94 H94       -73.0128   24.8977  -74.2822 H         1 UNK         0.0784 
     95 H95       -72.7989   23.2900  -74.9787 H         1 UNK         0.0784 
     96 H96       -74.0044   24.6956  -76.7147 H         1 UNK         0.3213 
     97 H97       -73.9269   24.9758  -80.3154 H         1 UNK         0.0855 
     98 H98       -74.9467   22.9508  -78.2607 H         1 UNK         0.0814 
     99 H99       -73.9222   22.6228  -79.6449 H         1 UNK         0.0814 
    100 H100      -75.5722   23.1672  -79.8929 H         1 UNK         0.0814 
    101 H101      -75.8842   25.3265  -78.1196 H         1 UNK         0.3105 
    102 H102      -76.7115   28.5976  -79.4408 H         1 UNK         0.0547 
    103 H103      -78.1339   25.8891  -79.4697 H         1 UNK         0.0837 
    104 H104      -78.9020   27.4670  -79.6186 H         1 UNK         0.0837 
    105 H105      -77.8113   26.8985  -80.8724 H         1 UNK         0.0837 
    106 H106      -77.8164   27.0228  -77.2925 H         1 UNK         0.3020 
    107 H107      -76.6158   29.3829  -74.8396 H         1 UNK         0.1245 
    108 H108      -79.2166   28.7332  -74.5964 H         1 UNK         0.0781 
    109 H109      -79.2031   28.6793  -76.3212 H         1 UNK         0.0781 
    110 H110      -79.9940   32.3446  -73.9417 H         1 UNK         0.0836 
    111 H111      -80.9114   30.8988  -74.2911 H         1 UNK         0.0836 
    112 H112      -77.9162   26.9651  -74.3423 H         1 UNK         0.3022 
    113 H113      -75.0934   24.8748  -73.7763 H         1 UNK         0.0747 
    114 H114      -75.5564   26.0478  -71.6637 H         1 UNK         0.0793 
    115 H115      -76.4373   24.5310  -71.7160 H         1 UNK         0.0793 
    116 H116      -77.2723   26.0615  -71.9864 H         1 UNK         0.0793 
    117 H117      -77.9508   24.5040  -73.9241 H         1 UNK         0.3047 
    118 H118      -78.0679   23.6540  -77.3548 H         1 UNK         0.0822 
    119 H119      -77.1753   21.5238  -76.4362 H         1 UNK         0.0807 
    120 H120      -78.9252   21.4632  -76.5696 H         1 UNK         0.0807 
    121 H121      -78.1680   21.6984  -74.9966 H         1 UNK         0.0807 
    122 H122      -79.8960   23.4983  -75.0856 H         1 UNK         0.2946 
    123 H123      -81.1156   26.8308  -75.4766 H         1 UNK         0.1144 
    124 H124      -82.3582   25.5655  -77.2430 H         1 UNK         0.0793 
    125 H125      -83.2982   25.6859  -75.7653 H         1 UNK         0.0793 
    126 H126      -82.4855   24.1743  -76.1749 H         1 UNK         0.0793 
    127 H127      -81.9605   24.6903  -73.7925 H         1 UNK         0.2896 
@<TRIPOS>BOND
     1    1    2 1    
     2    1   67 1    
     3    1   68 1    
     4    1   69 1    
     5    2    3 2    
     6    2    4 am   BACKBONE|DICT|INTERRES
     7    4    5 1    
     8    4   70 1    
     9    5    6 1    
    10    5   65 1    
    11    5   71 1    
    12    6    7 1    
    13    6   72 1    
    14    6   73 1    
    15    7    8 1    
    16    8    9 1    
    17    8   74 1    
    18    8   75 1    
    19    9   10 ar   
    20    9   14 ar   
    21   10   11 ar   
    22   10   76 1    
    23   11   12 ar   
    24   11   48 1    
    25   12   13 ar   
    26   12   77 1    
    27   13   14 ar   
    28   13   15 1    
    29   14   78 1    
    30   15   16 1    
    31   15   79 1    
    32   15   80 1    
    33   16   17 1    
    34   17   18 1    
    35   17   81 1    
    36   17   82 1    
    37   18   19 1    
    38   18   22 1    
    39   18   83 1    
    40   19   20 am   BACKBONE|DICT|INTERRES
    41   19   21 2    
    42   20   84 1    
    43   20   85 1    
    44   22   23 am   BACKBONE|DICT|INTERRES
    45   22   86 1    
    46   23   24 2    
    47   23   25 1    
    48   25   26 1    
    49   25   27 1    
    50   25   87 1    
    51   26   88 1    
    52   26   89 1    
    53   26   90 1    
    54   27   28 am   BACKBONE|DICT|INTERRES
    55   27   91 1    
    56   28   29 2    
    57   28   30 1    
    58   30   31 1    
    59   30   32 1    
    60   30   92 1    
    61   31   93 1    
    62   31   94 1    
    63   31   95 1    
    64   32   33 am   BACKBONE|DICT|INTERRES
    65   32   96 1    
    66   33   34 2    
    67   33   35 1    
    68   35   36 1    
    69   35   37 1    
    70   35   97 1    
    71   36   98 1    
    72   36   99 1    
    73   36  100 1    
    74   37   38 am   BACKBONE|DICT|INTERRES
    75   37  101 1    
    76   38   39 2    
    77   38   40 1    
    78   40   41 1    
    79   40   42 1    
    80   40  102 1    
    81   41  103 1    
    82   41  104 1    
    83   41  105 1    
    84   42   43 am   BACKBONE|DICT|INTERRES
    85   42  106 1    
    86   43   44 2    
    87   43   45 1    
    88   45   46 1    
    89   45   49 1    
    90   45  107 1    
    91   46   47 1    
    92   46  108 1    
    93   46  109 1    
    94   47   48 1    
    95   48  110 1    
    96   48  111 1    
    97   49   50 am   BACKBONE|DICT|INTERRES
    98   49  112 1    
    99   50   51 2    
   100   50   52 1    
   101   52   53 1    
   102   52   54 1    
   103   52  113 1    
   104   53  114 1    
   105   53  115 1    
   106   53  116 1    
   107   54   55 am   BACKBONE|DICT|INTERRES
   108   54  117 1    
   109   55   56 2    
   110   55   57 1    
   111   57   58 1    
   112   57   59 1    
   113   57  118 1    
   114   58  119 1    
   115   58  120 1    
   116   58  121 1    
   117   59   60 am   BACKBONE|DICT|INTERRES
   118   59  122 1    
   119   60   61 2    
   120   60   62 1    
   121   62   63 1    
   122   62   64 1    
   123   62  123 1    
   124   63  124 1    
   125   63  125 1    
   126   63  126 1    
   127   64   65 am   BACKBONE|DICT|INTERRES
   128   64  127 1    
   129   65   66 2    
@<TRIPOS>SUBSTRUCTURE
     1 UNK         1 GROUP             0       ****    0 ROOT    
