@<TRIPOS>MOLECULE
3R135
127   129    1
SMALL
USER_CHARGES


@<TRIPOS>ATOM
      1 CA        -83.6829   29.7725  -73.8578 C.3       0 UNK        -0.1998 
      2 C         -82.4710   28.8578  -73.9392 C.2       0 UNK         0.4909 
      3 O         -81.6228   29.0369  -74.8118 O.2       0 UNK        -0.5240 
      4 N         -82.3873   27.8606  -73.0505 N.am      1 UNK        -0.4739 
      5 CA        -81.2673   26.9154  -72.9147 C.3       1 UNK         0.0864 
      6 C6        -81.1423   26.3845  -71.4615 C.3       11 UNK        -0.0881 
      7 S7        -81.0130   27.7229  -70.2255 S.3       11 UNK        -0.2682 
      8 C8        -79.2357   27.6895  -69.8012 C.3       11 UNK         0.0289 
      9 C9        -78.2796   28.2232  -70.8715 C.ar      11 UNK        -0.0687 
     10 C10       -78.6864   29.1046  -71.8828 C.ar      11 UNK        -0.0823 
     11 C11       -77.7750   29.5864  -72.8288 C.ar      11 UNK        -0.0830 
     12 C12       -76.4284   29.2230  -72.7253 C.ar      11 UNK        -0.1021 
     13 C13       -76.0023   28.3619  -71.7109 C.ar      11 UNK        -0.0753 
     14 C14       -76.9324   27.8564  -70.7993 C.ar      11 UNK        -0.0933 
     15 C15       -74.5322   28.0017  -71.5808 C.3       11 UNK         0.0166 
     16 S16       -73.6980   29.1525  -70.4488 S.3       11 UNK        -0.2615 
     17 C17       -71.9523   28.6661  -70.6502 C.3       11 UNK        -0.0865 
     18 CA        -71.1467   29.6926  -71.4956 C.3       10 UNK         0.0862 
     19 C         -69.6088   29.5128  -71.3247 C.2       10 UNK         0.5551 
     20 N         -68.8083   29.5789  -72.3827 N.am      10 UNK        -0.7319 
     21 O         -69.1251   29.3275  -70.2106 O.2       10 UNK        -0.5018 
     22 N         -71.5618   29.6752  -72.9091 N.am      10 UNK        -0.4509 
     23 C         -72.2117   30.6479  -73.5608 C.2       10 UNK         0.4899 
     24 O         -72.5988   31.6889  -73.0290 O.2       10 UNK        -0.4839 
     25 CA        -72.4477   30.4521  -75.0746 C.3       9 UNK         0.0222 
     26 CB        -71.8105   31.6001  -75.8777 C.3       9 UNK        -0.1966 
     27 N         -71.9303   29.1763  -75.5865 N.am      9 UNK        -0.4218 
     28 C         -72.5858   28.0112  -75.5222 C.2       9 UNK         0.5020 
     29 O         -73.7200   27.8887  -75.0659 O.2       9 UNK        -0.5274 
     30 CA        -71.8093   26.7722  -75.9756 C.3       8 UNK         0.0270 
     31 CB        -70.8819   26.2788  -74.8458 C.3       8 UNK        -0.1976 
     32 N         -72.7379   25.7093  -76.3598 N.am      8 UNK        -0.4313 
     33 C         -72.4144   24.6801  -77.1541 C.2       8 UNK         0.5041 
     34 O         -71.2938   24.5220  -77.6425 O.2       8 UNK        -0.5577 
     35 CA        -73.5084   23.6471  -77.4683 C.3       7 UNK         0.0284 
     36 CB        -73.6799   22.6613  -76.3011 C.3       7 UNK        -0.1958 
     37 N         -74.7960   24.2535  -77.8092 N.am      7 UNK        -0.4454 
     38 C         -75.0365   24.9477  -78.9318 C.2       7 UNK         0.5089 
     39 O         -74.2019   25.1307  -79.8187 O.2       7 UNK        -0.5125 
     40 CA        -76.4469   25.5432  -79.0973 C.3       6 UNK         0.0408 
     41 CB        -77.4040   24.5096  -79.7100 C.3       6 UNK        -0.1791 
     42 N         -76.9977   26.0366  -77.8344 N.am      6 UNK        -0.4762 
     43 C         -76.5143   27.0901  -77.1587 C.2       6 UNK         0.5007 
     44 O         -75.6303   27.8256  -77.5984 O.2       6 UNK        -0.5032 
     45 CA        -77.0961   27.3422  -75.7526 C.3       5 UNK         0.0783 
     46 C46       -78.2714   28.3536  -75.7765 C.3       11 UNK        -0.0857 
     47 S47       -77.6749   30.0698  -75.6051 S.3       11 UNK        -0.2512 
     48 C48       -78.2560   30.5255  -73.9333 C.3       11 UNK         0.0225 
     49 N         -77.4661   26.0905  -75.0878 N.am      5 UNK        -0.4615 
     50 C         -76.5865   25.2190  -74.5752 C.2       4 UNK         0.5053 
     51 O         -75.3658   25.3599  -74.6184 O.2       4 UNK        -0.5105 
     52 CA        -77.1735   23.9489  -73.9416 C.3       4 UNK         0.0263 
     53 CB        -77.6607   24.2406  -72.5139 C.3       4 UNK        -0.1981 
     54 N         -78.2633   23.3836  -74.7427 N.am      4 UNK        -0.4224 
     55 C         -78.0826   22.8361  -75.9553 C.2       3 UNK         0.4895 
     56 O         -76.9826   22.7245  -76.4945 O.2       3 UNK        -0.5091 
     57 CA        -79.3315   22.3689  -76.7228 C.3       3 UNK         0.0250 
     58 CB        -79.6473   20.9023  -76.3902 C.3       3 UNK        -0.1996 
     59 N         -80.5217   23.1888  -76.4868 N.am      3 UNK        -0.4254 
     60 C         -80.6141   24.5090  -76.6991 C.2       2 UNK         0.5004 
     61 O         -79.6882   25.2028  -77.1221 O.2       2 UNK        -0.5226 
     62 CA        -81.9431   25.1899  -76.3295 C.3       2 UNK         0.0269 
     63 CB        -83.1148   24.2109  -76.0865 C.3       2 UNK        -0.1926 
     64 N         -81.7791   26.0821  -75.1774 N.am      2 UNK        -0.4687 
     65 C         -81.3094   25.7743  -73.9587 C.2       1 UNK         0.5165 
     66 O         -80.9121   24.6481  -73.6511 O.2       1 UNK        -0.5079 
     67 H67       -84.2489   29.7291  -74.7879 H         1 UNK         0.0900 
     68 H68       -83.3637   30.8023  -73.7003 H         1 UNK         0.0900 
     69 H69       -84.3487   29.4950  -73.0409 H         1 UNK         0.0900 
     70 H70       -83.1245   27.7485  -72.3688 H         1 UNK         0.2959 
     71 H71       -80.3472   27.4518  -73.1415 H         1 UNK         0.1079 
     72 H72       -82.0119   25.7756  -71.2077 H         1 UNK         0.0837 
     73 H73       -80.2791   25.7269  -71.3554 H         1 UNK         0.0837 
     74 H74       -79.0951   28.2873  -68.8998 H         1 UNK         0.0685 
     75 H75       -78.9623   26.6674  -69.5342 H         1 UNK         0.0685 
     76 H76       -79.7175   29.4235  -71.9394 H         1 UNK         0.1434 
     77 H77       -75.7080   29.6119  -73.4327 H         1 UNK         0.1329 
     78 H78       -76.5970   27.1971  -70.0102 H         1 UNK         0.1335 
     79 H79       -74.4221   26.9792  -71.2165 H         1 UNK         0.0680 
     80 H80       -74.0479   28.0384  -72.5552 H         1 UNK         0.0680 
     81 H81       -71.8829   27.6668  -71.0832 H         1 UNK         0.1032 
     82 H82       -71.5396   28.5832  -69.6430 H         1 UNK         0.1032 
     83 H83       -71.3407   30.6831  -71.0803 H         1 UNK         0.0461 
     84 H84       -69.1750   29.7901  -73.2959 H         1 UNK         0.3453 
     85 H85       -67.8149   29.4670  -72.2530 H         1 UNK         0.3453 
     86 H86       -71.2877   28.8574  -73.4308 H         1 UNK         0.2984 
     87 H87       -73.5273   30.4875  -75.2377 H         1 UNK         0.0554 
     88 H88       -70.7293   31.6403  -75.7398 H         1 UNK         0.0847 
     89 H89       -72.2134   32.5659  -75.5693 H         1 UNK         0.0847 
     90 H90       -72.0107   31.4972  -76.9444 H         1 UNK         0.0847 
     91 H91       -70.9986   29.1912  -75.9779 H         1 UNK         0.3141 
     92 H92       -71.2104   27.0482  -76.8463 H         1 UNK         0.0743 
     93 H93       -70.1702   27.0500  -74.5492 H         1 UNK         0.0784 
     94 H94       -71.4496   25.9951  -73.9584 H         1 UNK         0.0784 
     95 H95       -70.2980   25.4126  -75.1572 H         1 UNK         0.0784 
     96 H96       -73.6769   25.7967  -75.9772 H         1 UNK         0.3213 
     97 H97       -73.1754   23.0749  -78.3371 H         1 UNK         0.0855 
     98 H98       -74.0593   23.1532  -75.4054 H         1 UNK         0.0814 
     99 H99       -72.7282   22.1969  -76.0396 H         1 UNK         0.0814 
    100 H100      -74.3704   21.8583  -76.5594 H         1 UNK         0.0814 
    101 H101      -75.5623   24.0878  -77.1657 H         1 UNK         0.3105 
    102 H102      -76.3768   26.3885  -79.7850 H         1 UNK         0.0547 
    103 H103      -77.0540   24.1919  -80.6929 H         1 UNK         0.0837 
    104 H104      -77.4830   23.6168  -79.0905 H         1 UNK         0.0837 
    105 H105      -78.4059   24.9199  -79.8380 H         1 UNK         0.0837 
    106 H106      -77.7976   25.5398  -77.4510 H         1 UNK         0.3020 
    107 H107      -76.2858   27.7700  -75.1589 H         1 UNK         0.1245 
    108 H108      -78.9655   28.1547  -74.9602 H         1 UNK         0.0781 
    109 H109      -78.8688   28.2648  -76.6862 H         1 UNK         0.0781 
    110 H110      -79.3463   30.5692  -73.9537 H         1 UNK         0.0836 
    111 H111      -77.9129   31.5356  -73.7067 H         1 UNK         0.0836 
    112 H112      -78.4454   25.8474  -75.0930 H         1 UNK         0.3022 
    113 H113      -76.3773   23.2035  -73.8832 H         1 UNK         0.0747 
    114 H114      -78.0870   23.3531  -72.0461 H         1 UNK         0.0793 
    115 H115      -76.8357   24.5775  -71.8846 H         1 UNK         0.0793 
    116 H116      -78.4150   25.0261  -72.5008 H         1 UNK         0.0793 
    117 H117      -79.2053   23.4799  -74.3796 H         1 UNK         0.3047 
    118 H118      -79.1025   22.4329  -77.7879 H         1 UNK         0.0822 
    119 H119      -80.4659   20.5228  -77.0022 H         1 UNK         0.0807 
    120 H120      -79.9229   20.7754  -75.3424 H         1 UNK         0.0807 
    121 H121      -78.7823   20.2647  -76.5793 H         1 UNK         0.0807 
    122 H122      -81.3268   22.7161  -76.1024 H         1 UNK         0.2946 
    123 H123      -82.2054   25.8183  -77.1824 H         1 UNK         0.1144 
    124 H124      -84.0459   24.7547  -75.9266 H         1 UNK         0.0793 
    125 H125      -82.9555   23.5774  -75.2131 H         1 UNK         0.0793 
    126 H126      -83.2728   23.5609  -76.9483 H         1 UNK         0.0793 
    127 H127      -81.9934   27.0598  -75.3416 H         1 UNK         0.2896 
@<TRIPOS>BOND
     1    1    2 1    
     2    1   67 1    
     3    1   68 1    
     4    1   69 1    
     5    2    3 2    
     6    2    4 am   BACKBONE|DICT|INTERRES
     7    4    5 1    
     8    4   70 1    
     9    5    6 1    
    10    5   65 1    
    11    5   71 1    
    12    6    7 1    
    13    6   72 1    
    14    6   73 1    
    15    7    8 1    
    16    8    9 1    
    17    8   74 1    
    18    8   75 1    
    19    9   10 ar   
    20    9   14 ar   
    21   10   11 ar   
    22   10   76 1    
    23   11   12 ar   
    24   11   48 1    
    25   12   13 ar   
    26   12   77 1    
    27   13   14 ar   
    28   13   15 1    
    29   14   78 1    
    30   15   16 1    
    31   15   79 1    
    32   15   80 1    
    33   16   17 1    
    34   17   18 1    
    35   17   81 1    
    36   17   82 1    
    37   18   19 1    
    38   18   22 1    
    39   18   83 1    
    40   19   20 am   BACKBONE|DICT|INTERRES
    41   19   21 2    
    42   20   84 1    
    43   20   85 1    
    44   22   23 am   BACKBONE|DICT|INTERRES
    45   22   86 1    
    46   23   24 2    
    47   23   25 1    
    48   25   26 1    
    49   25   27 1    
    50   25   87 1    
    51   26   88 1    
    52   26   89 1    
    53   26   90 1    
    54   27   28 am   BACKBONE|DICT|INTERRES
    55   27   91 1    
    56   28   29 2    
    57   28   30 1    
    58   30   31 1    
    59   30   32 1    
    60   30   92 1    
    61   31   93 1    
    62   31   94 1    
    63   31   95 1    
    64   32   33 am   BACKBONE|DICT|INTERRES
    65   32   96 1    
    66   33   34 2    
    67   33   35 1    
    68   35   36 1    
    69   35   37 1    
    70   35   97 1    
    71   36   98 1    
    72   36   99 1    
    73   36  100 1    
    74   37   38 am   BACKBONE|DICT|INTERRES
    75   37  101 1    
    76   38   39 2    
    77   38   40 1    
    78   40   41 1    
    79   40   42 1    
    80   40  102 1    
    81   41  103 1    
    82   41  104 1    
    83   41  105 1    
    84   42   43 am   BACKBONE|DICT|INTERRES
    85   42  106 1    
    86   43   44 2    
    87   43   45 1    
    88   45   46 1    
    89   45   49 1    
    90   45  107 1    
    91   46   47 1    
    92   46  108 1    
    93   46  109 1    
    94   47   48 1    
    95   48  110 1    
    96   48  111 1    
    97   49   50 am   BACKBONE|DICT|INTERRES
    98   49  112 1    
    99   50   51 2    
   100   50   52 1    
   101   52   53 1    
   102   52   54 1    
   103   52  113 1    
   104   53  114 1    
   105   53  115 1    
   106   53  116 1    
   107   54   55 am   BACKBONE|DICT|INTERRES
   108   54  117 1    
   109   55   56 2    
   110   55   57 1    
   111   57   58 1    
   112   57   59 1    
   113   57  118 1    
   114   58  119 1    
   115   58  120 1    
   116   58  121 1    
   117   59   60 am   BACKBONE|DICT|INTERRES
   118   59  122 1    
   119   60   61 2    
   120   60   62 1    
   121   62   63 1    
   122   62   64 1    
   123   62  123 1    
   124   63  124 1    
   125   63  125 1    
   126   63  126 1    
   127   64   65 am   BACKBONE|DICT|INTERRES
   128   64  127 1    
   129   65   66 2    
@<TRIPOS>SUBSTRUCTURE
     1 UNK         1 GROUP             0       ****    0 ROOT    
