@<TRIPOS>MOLECULE
3R135
127   129    1
SMALL
USER_CHARGES


@<TRIPOS>ATOM
      1 CA        -85.5952   26.2193  -72.7412 C.3       0 UNK        -0.1998 
      2 C         -84.3656   27.0502  -73.0753 C.2       0 UNK         0.4909 
      3 O         -84.4951   28.1362  -73.6406 O.2       0 UNK        -0.5240 
      4 N         -83.1726   26.5486  -72.7299 N.am      1 UNK        -0.4739 
      5 CA        -81.8856   27.2152  -72.9689 C.3       1 UNK         0.0864 
      6 C6        -80.7489   26.5899  -72.1221 C.3       11 UNK        -0.0881 
      7 S7        -80.9520   26.8411  -70.3255 S.3       11 UNK        -0.2682 
      8 C8        -80.5435   28.6082  -70.1040 C.3       11 UNK         0.0289 
      9 C9        -79.2470   29.0168  -70.7920 C.ar      11 UNK        -0.0687 
     10 C10       -79.2902   29.7461  -71.9850 C.ar      11 UNK        -0.0823 
     11 C11       -78.1127   30.1043  -72.6470 C.ar      11 UNK        -0.0830 
     12 C12       -76.8820   29.7587  -72.0820 C.ar      11 UNK        -0.1021 
     13 C13       -76.8240   29.0124  -70.9021 C.ar      11 UNK        -0.0753 
     14 C14       -78.0091   28.6497  -70.2543 C.ar      11 UNK        -0.0933 
     15 C15       -75.4729   28.5709  -70.3672 C.3       11 UNK         0.0166 
     16 S16       -74.7809   27.2677  -71.4309 S.3       11 UNK        -0.2615 
     17 C17       -73.0095   27.3510  -71.0106 C.3       11 UNK        -0.0865 
     18 CA        -72.2600   28.5069  -71.7281 C.3       10 UNK         0.0862 
     19 C         -70.7528   28.5196  -71.3339 C.2       10 UNK         0.5551 
     20 N         -69.8109   28.3795  -72.2601 N.am      10 UNK        -0.7319 
     21 O         -70.4322   28.6655  -70.1569 O.2       10 UNK        -0.5018 
     22 N         -72.5131   28.5251  -73.1782 N.am      10 UNK        -0.4509 
     23 C         -72.3564   29.5996  -73.9625 C.2       10 UNK         0.4899 
     24 O         -72.0777   30.7204  -73.5331 O.2       10 UNK        -0.4839 
     25 CA        -72.5326   29.3840  -75.4810 C.3       9 UNK         0.0222 
     26 CB        -71.7845   30.4426  -76.3187 C.3       9 UNK        -0.1966 
     27 N         -72.1882   28.0280  -75.9450 N.am      9 UNK        -0.4218 
     28 C         -71.0102   27.4045  -75.7750 C.2       9 UNK         0.5020 
     29 O         -70.0604   27.9137  -75.1769 O.2       9 UNK        -0.5274 
     30 CA        -70.8394   25.9782  -76.3226 C.3       8 UNK         0.0270 
     31 CB        -70.3511   25.0216  -75.2169 C.3       8 UNK        -0.1976 
     32 N         -72.0516   25.4120  -76.9237 N.am      8 UNK        -0.4313 
     33 C         -72.0538   24.6863  -78.0513 C.2       8 UNK         0.5041 
     34 O         -71.0808   24.5737  -78.7988 O.2       8 UNK        -0.5577 
     35 CA        -73.3383   23.9143  -78.3886 C.3       7 UNK         0.0284 
     36 CB        -73.5227   22.7209  -77.4361 C.3       7 UNK        -0.1958 
     37 N         -74.5279   24.7618  -78.3557 N.am      7 UNK        -0.4454 
     38 C         -74.9366   25.5329  -79.3722 C.2       7 UNK         0.5089 
     39 O         -74.3487   25.6156  -80.4512 O.2       7 UNK        -0.5125 
     40 CA        -76.2331   26.3385  -79.1607 C.3       6 UNK         0.0408 
     41 CB        -77.4246   25.6082  -79.7999 C.3       6 UNK        -0.1791 
     42 N         -76.5324   26.6160  -77.7514 N.am      6 UNK        -0.4762 
     43 C         -75.7896   27.4241  -76.9795 C.2       6 UNK         0.5007 
     44 O         -74.7810   28.0027  -77.3814 O.2       6 UNK        -0.5032 
     45 CA        -76.1926   27.5411  -75.4975 C.3       5 UNK         0.0783 
     46 C46       -77.4609   28.4106  -75.3166 C.3       11 UNK        -0.0857 
     47 S47       -77.0421   30.1883  -75.2546 S.3       11 UNK        -0.2512 
     48 C48       -78.1904   30.8334  -73.9859 C.3       11 UNK         0.0225 
     49 N         -76.3211   26.2232  -74.8744 N.am      5 UNK        -0.4615 
     50 C         -75.3329   25.3312  -74.7321 C.2       4 UNK         0.5053 
     51 O         -74.1750   25.5394  -75.0973 O.2       4 UNK        -0.5105 
     52 CA        -75.6945   23.9513  -74.1501 C.3       4 UNK         0.0263 
     53 CB        -75.7071   23.9714  -72.6101 C.3       4 UNK        -0.1981 
     54 N         -76.9307   23.3802  -74.7087 N.am      4 UNK        -0.4224 
     55 C         -78.1880   23.8140  -74.5463 C.2       3 UNK         0.4895 
     56 O         -78.5087   24.7441  -73.8030 O.2       3 UNK        -0.5091 
     57 CA        -79.2636   23.1053  -75.3838 C.3       3 UNK         0.0250 
     58 CB        -79.8431   21.9087  -74.6126 C.3       3 UNK        -0.1996 
     59 N         -80.3511   24.0178  -75.7401 N.am      3 UNK        -0.4254 
     60 C         -80.2271   25.1121  -76.5074 C.2       2 UNK         0.5004 
     61 O         -79.1862   25.4439  -77.0781 O.2       2 UNK        -0.5226 
     62 CA        -81.4741   26.0052  -76.6015 C.3       2 UNK         0.0269 
     63 CB        -82.5705   25.3492  -77.4572 C.3       2 UNK        -0.1926 
     64 N         -81.9892   26.2905  -75.2592 N.am      2 UNK        -0.4687 
     65 C         -81.4682   27.2279  -74.4543 C.2       1 UNK         0.5165 
     66 O         -80.6637   28.0762  -74.8375 O.2       1 UNK        -0.5079 
     67 H67       -86.1421   25.9755  -73.6516 H         1 UNK         0.0900 
     68 H68       -85.3342   25.2864  -72.2419 H         1 UNK         0.0900 
     69 H69       -86.2594   26.7804  -72.0844 H         1 UNK         0.0900 
     70 H70       -83.1246   25.6655  -72.2414 H         1 UNK         0.2959 
     71 H71       -81.9955   28.2618  -72.6794 H         1 UNK         0.1079 
     72 H72       -79.7696   26.9714  -72.4179 H         1 UNK         0.0837 
     73 H73       -80.6958   25.5149  -72.3045 H         1 UNK         0.0837 
     74 H74       -80.4665   28.8183  -69.0363 H         1 UNK         0.0685 
     75 H75       -81.3764   29.2114  -70.4683 H         1 UNK         0.0685 
     76 H76       -80.2456   30.0135  -72.4150 H         1 UNK         0.1434 
     77 H77       -75.9631   30.0258  -72.5862 H         1 UNK         0.1329 
     78 H78       -77.9722   28.0646  -69.3456 H         1 UNK         0.1335 
     79 H79       -75.5539   28.2007  -69.3442 H         1 UNK         0.0680 
     80 H80       -74.8032   29.4309  -70.3390 H         1 UNK         0.0680 
     81 H81       -72.5612   26.3914  -71.2748 H         1 UNK         0.1032 
     82 H82       -72.9117   27.4405  -69.9268 H         1 UNK         0.1032 
     83 H83       -72.6634   29.4388  -71.3285 H         1 UNK         0.0461 
     84 H84       -70.0470   28.2671  -73.2412 H         1 UNK         0.3453 
     85 H85       -68.8434   28.3947  -71.9806 H         1 UNK         0.3453 
     86 H86       -72.7497   27.6402  -73.6025 H         1 UNK         0.2984 
     87 H87       -73.5967   29.5210  -75.6692 H         1 UNK         0.0554 
     88 H88       -72.1297   31.4493  -76.0805 H         1 UNK         0.0847 
     89 H89       -71.9500   30.2913  -77.3854 H         1 UNK         0.0847 
     90 H90       -70.7095   30.4157  -76.1377 H         1 UNK         0.0847 
     91 H91       -72.9190   27.5620  -76.4709 H         1 UNK         0.3141 
     92 H92       -70.0520   26.0552  -77.0751 H         1 UNK         0.0743 
     93 H93       -69.4259   25.3775  -74.7614 H         1 UNK         0.0784 
     94 H94       -71.0905   24.9204  -74.4212 H         1 UNK         0.0784 
     95 H95       -70.1490   24.0269  -75.6144 H         1 UNK         0.0784 
     96 H96       -72.8893   25.4344  -76.3415 H         1 UNK         0.3213 
     97 H97       -73.2267   23.5110  -79.3981 H         1 UNK         0.0855 
     98 H98       -73.6059   23.0363  -76.3968 H         1 UNK         0.0814 
     99 H99       -72.6709   22.0423  -77.4986 H         1 UNK         0.0814 
    100 H100      -74.4130   22.1442  -77.6875 H         1 UNK         0.0814 
    101 H101      -75.0639   24.7831  -77.5018 H         1 UNK         0.3105 
    102 H102      -76.1097   27.2956  -79.6719 H         1 UNK         0.0547 
    103 H103      -78.3369   26.2008  -79.7301 H         1 UNK         0.0837 
    104 H104      -77.2444   25.4154  -80.8583 H         1 UNK         0.0837 
    105 H105      -77.6132   24.6471  -79.3199 H         1 UNK         0.0837 
    106 H106      -77.3682   26.1806  -77.3668 H         1 UNK         0.3020 
    107 H107      -75.3675   28.0264  -74.9718 H         1 UNK         0.1245 
    108 H108      -77.9615   28.1340  -74.3885 H         1 UNK         0.0781 
    109 H109      -78.1988   28.2364  -76.1025 H         1 UNK         0.0781 
    110 H110      -79.2024   30.7786  -74.3910 H         1 UNK         0.0836 
    111 H111      -77.9786   31.8908  -73.8234 H         1 UNK         0.0836 
    112 H112      -77.2411   25.9566  -74.5338 H         1 UNK         0.3022 
    113 H113      -74.8982   23.2687  -74.4481 H         1 UNK         0.0747 
    114 H114      -75.9405   22.9885  -72.2014 H         1 UNK         0.0793 
    115 H115      -74.7300   24.2608  -72.2211 H         1 UNK         0.0793 
    116 H116      -76.4331   24.6815  -72.2128 H         1 UNK         0.0793 
    117 H117      -76.7869   22.6068  -75.3437 H         1 UNK         0.3047 
    118 H118      -78.8116   22.7471  -76.3113 H         1 UNK         0.0822 
    119 H119      -79.0622   21.1910  -74.3575 H         1 UNK         0.0807 
    120 H120      -80.5881   21.3766  -75.2048 H         1 UNK         0.0807 
    121 H121      -80.3148   22.2208  -73.6797 H         1 UNK         0.0807 
    122 H122      -81.2367   23.8515  -75.2884 H         1 UNK         0.2946 
    123 H123      -81.1793   26.9395  -77.0858 H         1 UNK         0.1144 
    124 H124      -83.4288   26.0116  -77.5717 H         1 UNK         0.0793 
    125 H125      -82.9265   24.4135  -77.0247 H         1 UNK         0.0793 
    126 H126      -82.1994   25.1257  -78.4584 H         1 UNK         0.0793 
    127 H127      -82.6743   25.6573  -74.8740 H         1 UNK         0.2896 
@<TRIPOS>BOND
     1    1    2 1    
     2    1   67 1    
     3    1   68 1    
     4    1   69 1    
     5    2    3 2    
     6    2    4 am   BACKBONE|DICT|INTERRES
     7    4    5 1    
     8    4   70 1    
     9    5    6 1    
    10    5   65 1    
    11    5   71 1    
    12    6    7 1    
    13    6   72 1    
    14    6   73 1    
    15    7    8 1    
    16    8    9 1    
    17    8   74 1    
    18    8   75 1    
    19    9   10 ar   
    20    9   14 ar   
    21   10   11 ar   
    22   10   76 1    
    23   11   12 ar   
    24   11   48 1    
    25   12   13 ar   
    26   12   77 1    
    27   13   14 ar   
    28   13   15 1    
    29   14   78 1    
    30   15   16 1    
    31   15   79 1    
    32   15   80 1    
    33   16   17 1    
    34   17   18 1    
    35   17   81 1    
    36   17   82 1    
    37   18   19 1    
    38   18   22 1    
    39   18   83 1    
    40   19   20 am   BACKBONE|DICT|INTERRES
    41   19   21 2    
    42   20   84 1    
    43   20   85 1    
    44   22   23 am   BACKBONE|DICT|INTERRES
    45   22   86 1    
    46   23   24 2    
    47   23   25 1    
    48   25   26 1    
    49   25   27 1    
    50   25   87 1    
    51   26   88 1    
    52   26   89 1    
    53   26   90 1    
    54   27   28 am   BACKBONE|DICT|INTERRES
    55   27   91 1    
    56   28   29 2    
    57   28   30 1    
    58   30   31 1    
    59   30   32 1    
    60   30   92 1    
    61   31   93 1    
    62   31   94 1    
    63   31   95 1    
    64   32   33 am   BACKBONE|DICT|INTERRES
    65   32   96 1    
    66   33   34 2    
    67   33   35 1    
    68   35   36 1    
    69   35   37 1    
    70   35   97 1    
    71   36   98 1    
    72   36   99 1    
    73   36  100 1    
    74   37   38 am   BACKBONE|DICT|INTERRES
    75   37  101 1    
    76   38   39 2    
    77   38   40 1    
    78   40   41 1    
    79   40   42 1    
    80   40  102 1    
    81   41  103 1    
    82   41  104 1    
    83   41  105 1    
    84   42   43 am   BACKBONE|DICT|INTERRES
    85   42  106 1    
    86   43   44 2    
    87   43   45 1    
    88   45   46 1    
    89   45   49 1    
    90   45  107 1    
    91   46   47 1    
    92   46  108 1    
    93   46  109 1    
    94   47   48 1    
    95   48  110 1    
    96   48  111 1    
    97   49   50 am   BACKBONE|DICT|INTERRES
    98   49  112 1    
    99   50   51 2    
   100   50   52 1    
   101   52   53 1    
   102   52   54 1    
   103   52  113 1    
   104   53  114 1    
   105   53  115 1    
   106   53  116 1    
   107   54   55 am   BACKBONE|DICT|INTERRES
   108   54  117 1    
   109   55   56 2    
   110   55   57 1    
   111   57   58 1    
   112   57   59 1    
   113   57  118 1    
   114   58  119 1    
   115   58  120 1    
   116   58  121 1    
   117   59   60 am   BACKBONE|DICT|INTERRES
   118   59  122 1    
   119   60   61 2    
   120   60   62 1    
   121   62   63 1    
   122   62   64 1    
   123   62  123 1    
   124   63  124 1    
   125   63  125 1    
   126   63  126 1    
   127   64   65 am   BACKBONE|DICT|INTERRES
   128   64  127 1    
   129   65   66 2    
@<TRIPOS>SUBSTRUCTURE
     1 UNK         1 GROUP             0       ****    0 ROOT    
