@<TRIPOS>MOLECULE
3R135
127   129    1
SMALL
USER_CHARGES


@<TRIPOS>ATOM
      1 CA        -81.6383   31.5011  -75.9658 C.3       0 UNK        -0.1998 
      2 C         -81.2818   30.6134  -74.7828 C.2       0 UNK         0.4909 
      3 O         -81.2985   31.0781  -73.6426 O.2       0 UNK        -0.5240 
      4 N         -80.9585   29.3417  -75.0459 N.am      1 UNK        -0.4739 
      5 CA        -80.5838   28.3482  -74.0344 C.3       1 UNK         0.0864 
      6 C6        -81.8229   27.5818  -73.4974 C.3       11 UNK        -0.0881 
      7 S7        -81.6225   26.7297  -71.8916 S.3       11 UNK        -0.2682 
      8 C8        -81.0188   28.0283  -70.7585 C.3       11 UNK         0.0289 
      9 C9        -79.4970   28.0411  -70.6627 C.ar      11 UNK        -0.0687 
     10 C10       -78.8137   26.8931  -70.2504 C.ar      11 UNK        -0.0823 
     11 C11       -77.4178   26.8778  -70.1886 C.ar      11 UNK        -0.0830 
     12 C12       -76.7036   28.0339  -70.5133 C.ar      11 UNK        -0.1021 
     13 C13       -77.3717   29.1839  -70.9428 C.ar      11 UNK        -0.0753 
     14 C14       -78.7690   29.1885  -70.9948 C.ar      11 UNK        -0.0933 
     15 C15       -76.5887   30.4091  -71.3897 C.3       11 UNK         0.0166 
     16 S16       -76.0750   30.2551  -73.1324 S.3       11 UNK        -0.2615 
     17 C17       -74.4944   29.3472  -72.9874 C.3       11 UNK        -0.0865 
     18 CA        -73.3063   30.1718  -73.5478 C.3       10 UNK         0.0862 
     19 C         -71.9364   29.5781  -73.1169 C.2       10 UNK         0.5551 
     20 N         -71.5688   29.7426  -71.8530 N.am      10 UNK        -0.7319 
     21 O         -71.2127   28.9592  -73.8935 O.2       10 UNK        -0.5018 
     22 N         -73.4136   30.3349  -75.0040 N.am      10 UNK        -0.4509 
     23 C         -72.8914   31.3571  -75.6941 C.2       10 UNK         0.4899 
     24 O         -72.2937   32.2977  -75.1673 O.2       10 UNK        -0.4839 
     25 CA        -73.1066   31.3557  -77.2234 C.3       9 UNK         0.0222 
     26 CB        -72.0800   32.2283  -77.9786 C.3       9 UNK        -0.1966 
     27 N         -73.1934   30.0108  -77.8055 N.am      9 UNK        -0.4218 
     28 C         -72.2319   29.0772  -77.8363 C.2       9 UNK         0.5020 
     29 O         -71.0749   29.2435  -77.4443 O.2       9 UNK        -0.5274 
     30 CA        -72.6472   27.7084  -78.4024 C.3       8 UNK         0.0270 
     31 CB        -71.8579   27.3767  -79.6801 C.3       8 UNK        -0.1976 
     32 N         -72.4667   26.6343  -77.4232 N.am      8 UNK        -0.4313 
     33 C         -73.0552   26.5817  -76.2209 C.2       8 UNK         0.5041 
     34 O         -73.8473   27.4277  -75.8025 O.2       8 UNK        -0.5577 
     35 CA        -72.7660   25.3368  -75.3806 C.3       7 UNK         0.0284 
     36 CB        -72.7120   25.6420  -73.8721 C.3       7 UNK        -0.1958 
     37 N         -73.8384   24.3863  -75.6414 N.am      7 UNK        -0.4454 
     38 C         -73.6993   23.0598  -75.7417 C.2       7 UNK         0.5089 
     39 O         -72.6185   22.4718  -75.6702 O.2       7 UNK        -0.5125 
     40 CA        -75.0090   22.2702  -75.9277 C.3       6 UNK         0.0408 
     41 CB        -74.8326   20.7406  -75.8241 C.3       6 UNK        -0.1791 
     42 N         -76.0469   22.7629  -75.0163 N.am      6 UNK        -0.4762 
     43 C         -76.0480   22.7228  -73.6734 C.2       6 UNK         0.5007 
     44 O         -75.2364   22.0879  -72.9991 O.2       6 UNK        -0.5032 
     45 CA        -77.1427   23.5518  -72.9650 C.3       5 UNK         0.0783 
     46 C46       -76.6304   24.9728  -72.6220 C.3       11 UNK        -0.0857 
     47 S47       -75.5525   25.0305  -71.1476 S.3       11 UNK        -0.2512 
     48 C48       -76.6847   25.5919  -69.8279 C.3       11 UNK         0.0225 
     49 N         -78.3725   23.6397  -73.7564 N.am      5 UNK        -0.4615 
     50 C         -79.1793   22.6186  -74.0711 C.2       4 UNK         0.5053 
     51 O         -79.0364   21.4714  -73.6486 O.2       4 UNK        -0.5105 
     52 CA        -80.3211   22.9330  -75.0494 C.3       4 UNK         0.0263 
     53 CB        -81.5523   23.4628  -74.2977 C.3       4 UNK        -0.1981 
     54 N         -79.9015   23.9098  -76.0589 N.am      4 UNK        -0.4224 
     55 C         -79.2105   23.6008  -77.1655 C.2       3 UNK         0.4895 
     56 O         -78.9121   22.4503  -77.4860 O.2       3 UNK        -0.5091 
     57 CA        -78.7695   24.7641  -78.0721 C.3       3 UNK         0.0250 
     58 CB        -79.8432   25.0537  -79.1332 C.3       3 UNK        -0.1996 
     59 N         -78.4640   25.9978  -77.3433 N.am      3 UNK        -0.4254 
     60 C         -77.3970   26.1688  -76.5505 C.2       2 UNK         0.5004 
     61 O         -76.5512   25.2993  -76.3389 O.2       2 UNK        -0.5226 
     62 CA        -77.2675   27.5347  -75.8541 C.3       2 UNK         0.0269 
     63 CB        -76.6596   28.5650  -76.8212 C.3       2 UNK        -0.1926 
     64 N         -78.5113   28.0919  -75.3060 N.am      2 UNK        -0.4687 
     65 C         -79.4360   27.4640  -74.5622 C.2       1 UNK         0.5165 
     66 O         -79.4155   26.2557  -74.3277 O.2       1 UNK        -0.5079 
     67 H67       -82.6519   31.8849  -75.8538 H         1 UNK         0.0900 
     68 H68       -80.9564   32.3495  -76.0167 H         1 UNK         0.0900 
     69 H69       -81.5823   30.9635  -76.9121 H         1 UNK         0.0900 
     70 H70       -80.9650   29.0110  -76.0014 H         1 UNK         0.2959 
     71 H71       -80.1377   28.8922  -73.2075 H         1 UNK         0.1079 
     72 H72       -82.1660   26.8536  -74.2343 H         1 UNK         0.0837 
     73 H73       -82.6537   28.2777  -73.3699 H         1 UNK         0.0837 
     74 H74       -81.4254   27.8377  -69.7645 H         1 UNK         0.0685 
     75 H75       -81.4092   28.9994  -71.0677 H         1 UNK         0.0685 
     76 H76       -79.3743   26.0001  -70.0093 H         1 UNK         0.1434 
     77 H77       -75.6244   28.0165  -70.4709 H         1 UNK         0.1329 
     78 H78       -79.2879   30.0792  -71.3232 H         1 UNK         0.1335 
     79 H79       -75.7218   30.5687  -70.7469 H         1 UNK         0.0680 
     80 H80       -77.2069   31.3024  -71.2885 H         1 UNK         0.0680 
     81 H81       -74.3190   29.0969  -71.9416 H         1 UNK         0.1032 
     82 H82       -74.5878   28.3927  -73.5065 H         1 UNK         0.1032 
     83 H83       -73.3606   31.1657  -73.0981 H         1 UNK         0.0461 
     84 H84       -72.1422   30.2562  -71.2023 H         1 UNK         0.3453 
     85 H85       -70.6870   29.3609  -71.5484 H         1 UNK         0.3453 
     86 H86       -73.7910   29.5364  -75.5020 H         1 UNK         0.2984 
     87 H87       -74.0876   31.8067  -77.3796 H         1 UNK         0.0554 
     88 H88       -72.1363   33.2680  -77.6541 H         1 UNK         0.0847 
     89 H89       -72.2615   32.2168  -79.0532 H         1 UNK         0.0847 
     90 H90       -71.0571   31.8921  -77.8067 H         1 UNK         0.0847 
     91 H91       -74.1057   29.7556  -78.1567 H         1 UNK         0.3141 
     92 H92       -73.7076   27.7359  -78.6610 H         1 UNK         0.0743 
     93 H93       -70.7883   27.2904  -79.4833 H         1 UNK         0.0784 
     94 H94       -72.1951   26.4403  -80.1251 H         1 UNK         0.0784 
     95 H95       -71.9881   28.1567  -80.4316 H         1 UNK         0.0784 
     96 H96       -71.8326   25.8929  -77.6830 H         1 UNK         0.3213 
     97 H97       -71.8030   24.9221  -75.6865 H         1 UNK         0.0855 
     98 H98       -73.6467   26.0706  -73.5099 H         1 UNK         0.0814 
     99 H99       -71.9169   26.3529  -73.6483 H         1 UNK         0.0814 
    100 H100      -72.5156   24.7401  -73.2922 H         1 UNK         0.0814 
    101 H101      -74.7628   24.7904  -75.7836 H         1 UNK         0.3105 
    102 H102      -75.3622   22.4928  -76.9357 H         1 UNK         0.0547 
    103 H103      -75.7843   20.2232  -75.9440 H         1 UNK         0.0837 
    104 H104      -74.4047   20.4408  -74.8673 H         1 UNK         0.0837 
    105 H105      -74.1636   20.3750  -76.6037 H         1 UNK         0.0837 
    106 H106      -76.7293   23.3735  -75.4510 H         1 UNK         0.3020 
    107 H107      -77.3972   23.0335  -72.0379 H         1 UNK         0.1245 
    108 H108      -77.4758   25.6419  -72.4668 H         1 UNK         0.0781 
    109 H109      -76.0872   25.4074  -73.4634 H         1 UNK         0.0781 
    110 H110      -76.1119   25.7523  -68.9137 H         1 UNK         0.0836 
    111 H111      -77.3910   24.7890  -69.6111 H         1 UNK         0.0836 
    112 H112      -78.6284   24.5672  -74.0860 H         1 UNK         0.3022 
    113 H113      -80.6037   22.0030  -75.5479 H         1 UNK         0.0747 
    114 H114      -82.3788   23.6628  -74.9796 H         1 UNK         0.0793 
    115 H115      -81.9039   22.7352  -73.5652 H         1 UNK         0.0793 
    116 H116      -81.3311   24.3841  -73.7591 H         1 UNK         0.0793 
    117 H117      -80.0359   24.8857  -75.8240 H         1 UNK         0.3047 
    118 H118      -77.8600   24.4470  -78.5875 H         1 UNK         0.0822 
    119 H119      -79.5090   25.8143  -79.8391 H         1 UNK         0.0807 
    120 H120      -80.7755   25.3976  -78.6834 H         1 UNK         0.0807 
    121 H121      -80.0720   24.1570  -79.7112 H         1 UNK         0.0807 
    122 H122      -79.1053   26.7691  -77.4549 H         1 UNK         0.2946 
    123 H123      -76.5756   27.3997  -75.0198 H         1 UNK         0.1144 
    124 H124      -76.3217   29.4537  -76.2876 H         1 UNK         0.0793 
    125 H125      -77.3744   28.8783  -77.5828 H         1 UNK         0.0793 
    126 H126      -75.7959   28.1540  -77.3432 H         1 UNK         0.0793 
    127 H127      -78.6292   29.0874  -75.4293 H         1 UNK         0.2896 
@<TRIPOS>BOND
     1    1    2 1    
     2    1   67 1    
     3    1   68 1    
     4    1   69 1    
     5    2    3 2    
     6    2    4 am   BACKBONE|DICT|INTERRES
     7    4    5 1    
     8    4   70 1    
     9    5    6 1    
    10    5   65 1    
    11    5   71 1    
    12    6    7 1    
    13    6   72 1    
    14    6   73 1    
    15    7    8 1    
    16    8    9 1    
    17    8   74 1    
    18    8   75 1    
    19    9   10 ar   
    20    9   14 ar   
    21   10   11 ar   
    22   10   76 1    
    23   11   12 ar   
    24   11   48 1    
    25   12   13 ar   
    26   12   77 1    
    27   13   14 ar   
    28   13   15 1    
    29   14   78 1    
    30   15   16 1    
    31   15   79 1    
    32   15   80 1    
    33   16   17 1    
    34   17   18 1    
    35   17   81 1    
    36   17   82 1    
    37   18   19 1    
    38   18   22 1    
    39   18   83 1    
    40   19   20 am   BACKBONE|DICT|INTERRES
    41   19   21 2    
    42   20   84 1    
    43   20   85 1    
    44   22   23 am   BACKBONE|DICT|INTERRES
    45   22   86 1    
    46   23   24 2    
    47   23   25 1    
    48   25   26 1    
    49   25   27 1    
    50   25   87 1    
    51   26   88 1    
    52   26   89 1    
    53   26   90 1    
    54   27   28 am   BACKBONE|DICT|INTERRES
    55   27   91 1    
    56   28   29 2    
    57   28   30 1    
    58   30   31 1    
    59   30   32 1    
    60   30   92 1    
    61   31   93 1    
    62   31   94 1    
    63   31   95 1    
    64   32   33 am   BACKBONE|DICT|INTERRES
    65   32   96 1    
    66   33   34 2    
    67   33   35 1    
    68   35   36 1    
    69   35   37 1    
    70   35   97 1    
    71   36   98 1    
    72   36   99 1    
    73   36  100 1    
    74   37   38 am   BACKBONE|DICT|INTERRES
    75   37  101 1    
    76   38   39 2    
    77   38   40 1    
    78   40   41 1    
    79   40   42 1    
    80   40  102 1    
    81   41  103 1    
    82   41  104 1    
    83   41  105 1    
    84   42   43 am   BACKBONE|DICT|INTERRES
    85   42  106 1    
    86   43   44 2    
    87   43   45 1    
    88   45   46 1    
    89   45   49 1    
    90   45  107 1    
    91   46   47 1    
    92   46  108 1    
    93   46  109 1    
    94   47   48 1    
    95   48  110 1    
    96   48  111 1    
    97   49   50 am   BACKBONE|DICT|INTERRES
    98   49  112 1    
    99   50   51 2    
   100   50   52 1    
   101   52   53 1    
   102   52   54 1    
   103   52  113 1    
   104   53  114 1    
   105   53  115 1    
   106   53  116 1    
   107   54   55 am   BACKBONE|DICT|INTERRES
   108   54  117 1    
   109   55   56 2    
   110   55   57 1    
   111   57   58 1    
   112   57   59 1    
   113   57  118 1    
   114   58  119 1    
   115   58  120 1    
   116   58  121 1    
   117   59   60 am   BACKBONE|DICT|INTERRES
   118   59  122 1    
   119   60   61 2    
   120   60   62 1    
   121   62   63 1    
   122   62   64 1    
   123   62  123 1    
   124   63  124 1    
   125   63  125 1    
   126   63  126 1    
   127   64   65 am   BACKBONE|DICT|INTERRES
   128   64  127 1    
   129   65   66 2    
@<TRIPOS>SUBSTRUCTURE
     1 UNK         1 GROUP             0       ****    0 ROOT    
