@<TRIPOS>MOLECULE
3R135
127   129    1
SMALL
USER_CHARGES


@<TRIPOS>ATOM
      1 CA        -86.0744   27.5254  -74.5106 C.3       0 UNK        -0.1998 
      2 C         -84.7758   28.0526  -75.1019 C.2       0 UNK         0.4909 
      3 O         -84.8043   28.7547  -76.1128 O.2       0 UNK        -0.5240 
      4 N         -83.6360   27.7133  -74.4839 N.am      1 UNK        -0.4739 
      5 CA        -82.2909   28.1283  -74.9141 C.3       1 UNK         0.0864 
      6 C6        -81.3065   28.2006  -73.7093 C.3       11 UNK        -0.0881 
      7 S7        -80.3747   29.7697  -73.6949 S.3       11 UNK        -0.2682 
      8 C8        -80.0251   29.9844  -71.9218 C.3       11 UNK         0.0289 
      9 C9        -78.7521   29.2638  -71.5008 C.ar      11 UNK        -0.0687 
     10 C10       -78.7984   27.9538  -71.0135 C.ar      11 UNK        -0.0823 
     11 C11       -77.6309   27.3167  -70.5770 C.ar      11 UNK        -0.0830 
     12 C12       -76.4095   27.9950  -70.6482 C.ar      11 UNK        -0.1021 
     13 C13       -76.3488   29.3007  -71.1437 C.ar      11 UNK        -0.0753 
     14 C14       -77.5248   29.9295  -71.5636 C.ar      11 UNK        -0.0933 
     15 C15       -75.0236   30.0497  -71.1877 C.3       11 UNK         0.0166 
     16 S16       -74.5595   30.4948  -72.8882 S.3       11 UNK        -0.2615 
     17 C17       -73.0341   31.4622  -72.6106 C.3       11 UNK        -0.0865 
     18 CA        -71.7419   30.7892  -73.1523 C.3       10 UNK         0.0862 
     19 C         -71.2051   29.6491  -72.2394 C.2       10 UNK         0.5551 
     20 N         -70.8861   29.9583  -70.9891 N.am      10 UNK        -0.7319 
     21 O         -71.0586   28.4974  -72.6434 O.2       10 UNK        -0.5018 
     22 N         -71.9155   30.3701  -74.5480 N.am      10 UNK        -0.4509 
     23 C         -70.9611   30.3451  -75.4812 C.2       10 UNK         0.4899 
     24 O         -69.8096   30.7502  -75.3106 O.2       10 UNK        -0.4839 
     25 CA        -71.3983   29.7603  -76.8326 C.3       9 UNK         0.0222 
     26 CB        -70.4296   30.0886  -77.9898 C.3       9 UNK        -0.1966 
     27 N         -71.6563   28.3207  -76.7222 N.am      9 UNK        -0.4218 
     28 C         -70.7660   27.3356  -76.5121 C.2       9 UNK         0.5020 
     29 O         -69.5526   27.5180  -76.4027 O.2       9 UNK        -0.5274 
     30 CA        -71.2942   25.8866  -76.4118 C.3       8 UNK         0.0270 
     31 CB        -71.0848   25.3379  -74.9900 C.3       8 UNK        -0.1976 
     32 N         -72.7033   25.7186  -76.7764 N.am      8 UNK        -0.4313 
     33 C         -73.2352   25.9189  -77.9899 C.2       8 UNK         0.5041 
     34 O         -72.5691   26.1598  -78.9971 O.2       8 UNK        -0.5577 
     35 CA        -74.7724   25.8982  -78.0918 C.3       7 UNK         0.0284 
     36 CB        -75.2549   24.5452  -78.6348 C.3       7 UNK        -0.1958 
     37 N         -75.4630   26.1948  -76.8293 N.am      7 UNK        -0.4454 
     38 C         -75.3589   27.3403  -76.1357 C.2       7 UNK         0.5089 
     39 O         -74.6443   28.2850  -76.4755 O.2       7 UNK        -0.5125 
     40 CA        -76.1418   27.4182  -74.8180 C.3       6 UNK         0.0408 
     41 CB        -77.6256   27.7130  -75.0674 C.3       6 UNK        -0.1791 
     42 N         -76.0120   26.1781  -74.0573 N.am      6 UNK        -0.4762 
     43 C         -74.9770   25.8895  -73.2563 C.2       6 UNK         0.5007 
     44 O         -74.0471   26.6624  -73.0323 O.2       6 UNK        -0.5032 
     45 CA        -74.9520   24.4838  -72.6208 C.3       5 UNK         0.0783 
     46 C46       -75.5887   24.4701  -71.2085 C.3       11 UNK        -0.0857 
     47 S47       -77.4139   24.6123  -71.2091 S.3       11 UNK        -0.2512 
     48 C48       -77.7034   25.9193  -69.9761 C.3       11 UNK         0.0225 
     49 N         -75.5336   23.4544  -73.4859 N.am      5 UNK        -0.4615 
     50 C         -75.0486   23.0772  -74.6750 C.2       4 UNK         0.5053 
     51 O         -74.0181   23.5297  -75.1706 O.2       4 UNK        -0.5105 
     52 CA        -75.8815   22.0497  -75.4604 C.3       4 UNK         0.0263 
     53 CB        -75.4609   20.6205  -75.0835 C.3       4 UNK        -0.1981 
     54 N         -77.3305   22.1984  -75.2786 N.am      4 UNK        -0.4224 
     55 C         -78.0376   23.2979  -75.5742 C.2       3 UNK         0.4895 
     56 O         -77.5440   24.3435  -76.0065 O.2       3 UNK        -0.5091 
     57 CA        -79.5395   23.2285  -75.2897 C.3       3 UNK         0.0250 
     58 CB        -79.8297   23.5487  -73.8128 C.3       3 UNK        -0.1996 
     59 N         -80.2400   24.1919  -76.1334 N.am      3 UNK        -0.4254 
     60 C         -81.4553   24.0098  -76.6593 C.2       2 UNK         0.5004 
     61 O         -82.1275   22.9888  -76.4986 O.2       2 UNK        -0.5226 
     62 CA        -82.0412   25.2003  -77.4322 C.3       2 UNK         0.0269 
     63 CB        -83.2505   24.8073  -78.3019 C.3       2 UNK        -0.1926 
     64 N         -82.4642   26.2087  -76.4626 N.am      2 UNK        -0.4687 
     65 C         -81.7297   27.2553  -76.0630 C.2       1 UNK         0.5165 
     66 O         -80.6340   27.5272  -76.5540 O.2       1 UNK        -0.5079 
     67 H67       -86.5999   26.9140  -75.2438 H         1 UNK         0.0900 
     68 H68       -85.9020   26.9172  -73.6228 H         1 UNK         0.0900 
     69 H69       -86.7230   28.3553  -74.2316 H         1 UNK         0.0900 
     70 H70       -83.6746   27.1273  -73.6614 H         1 UNK         0.2959 
     71 H71       -82.3909   29.1289  -75.3415 H         1 UNK         0.1079 
     72 H72       -81.8536   28.1318  -72.7681 H         1 UNK         0.0837 
     73 H73       -80.6022   27.3659  -73.6917 H         1 UNK         0.0837 
     74 H74       -79.9215   31.0517  -71.7201 H         1 UNK         0.0685 
     75 H75       -80.8725   29.6516  -71.3209 H         1 UNK         0.0685 
     76 H76       -79.7470   27.4380  -70.9541 H         1 UNK         0.1434 
     77 H77       -75.5051   27.5133  -70.3050 H         1 UNK         0.1329 
     78 H78       -77.4827   30.9438  -71.9368 H         1 UNK         0.1335 
     79 H79       -75.1079   30.9548  -70.5846 H         1 UNK         0.0680 
     80 H80       -74.2232   29.4513  -70.7492 H         1 UNK         0.0680 
     81 H81       -73.1688   32.4180  -73.1189 H         1 UNK         0.1032 
     82 H82       -72.9362   31.7190  -71.5547 H         1 UNK         0.1032 
     83 H83       -70.9638   31.5551  -73.1383 H         1 UNK         0.0461 
     84 H84       -70.5314   29.2334  -70.3852 H         1 UNK         0.3453 
     85 H85       -70.9708   30.9003  -70.6415 H         1 UNK         0.3453 
     86 H86       -72.8194   29.9716  -74.7616 H         1 UNK         0.2984 
     87 H87       -72.3572   30.2186  -77.0807 H         1 UNK         0.0554 
     88 H88       -70.3441   31.1672  -78.1257 H         1 UNK         0.0847 
     89 H89       -70.7817   29.6691  -78.9321 H         1 UNK         0.0847 
     90 H90       -69.4238   29.7089  -77.8090 H         1 UNK         0.0847 
     91 H91       -72.6391   28.0660  -76.7496 H         1 UNK         0.3141 
     92 H92       -70.7023   25.2828  -77.1025 H         1 UNK         0.0743 
     93 H93       -71.6631   25.8996  -74.2549 H         1 UNK         0.0784 
     94 H94       -71.3761   24.2898  -74.9194 H         1 UNK         0.0784 
     95 H95       -70.0367   25.4013  -74.6945 H         1 UNK         0.0784 
     96 H96       -73.3283   25.4265  -76.0339 H         1 UNK         0.3213 
     97 H97       -75.0604   26.6744  -78.8039 H         1 UNK         0.0855 
     98 H98       -74.9194   23.7225  -78.0052 H         1 UNK         0.0814 
     99 H99       -74.8604   24.3665  -79.6360 H         1 UNK         0.0814 
    100 H100      -76.3424   24.5018  -78.7008 H         1 UNK         0.0814 
    101 H101      -76.1039   25.4839  -76.4835 H         1 UNK         0.3105 
    102 H102      -75.7371   28.2401  -74.2272 H         1 UNK         0.0547 
    103 H103      -77.7550   28.6667  -75.5803 H         1 UNK         0.0837 
    104 H104      -78.1008   26.9465  -75.6790 H         1 UNK         0.0837 
    105 H105      -78.1703   27.7758  -74.1262 H         1 UNK         0.0837 
    106 H106      -76.7115   25.4667  -74.2217 H         1 UNK         0.3020 
    107 H107      -73.8952   24.2317  -72.5029 H         1 UNK         0.1245 
    108 H108      -75.1451   25.2464  -70.5843 H         1 UNK         0.0781 
    109 H109      -75.3389   23.5304  -70.7135 H         1 UNK         0.0781 
    110 H110      -76.9950   25.8207  -69.1522 H         1 UNK         0.0836 
    111 H111      -78.6892   25.7615  -69.5362 H         1 UNK         0.0836 
    112 H112      -76.3940   23.0402  -73.1586 H         1 UNK         0.3022 
    113 H113      -75.6705   22.1926  -76.5203 H         1 UNK         0.0747 
    114 H114      -75.9709   19.8801  -75.7002 H         1 UNK         0.0793 
    115 H115      -74.3893   20.4780  -75.2311 H         1 UNK         0.0793 
    116 H116      -75.6783   20.3960  -74.0384 H         1 UNK         0.0793 
    117 H117      -77.8203   21.3927  -74.9158 H         1 UNK         0.3047 
    118 H118      -79.8816   22.2166  -75.5184 H         1 UNK         0.0822 
    119 H119      -79.3176   22.8527  -73.1473 H         1 UNK         0.0807 
    120 H120      -80.8953   23.4767  -73.5947 H         1 UNK         0.0807 
    121 H121      -79.5038   24.5558  -73.5484 H         1 UNK         0.0807 
    122 H122      -79.7251   25.0404  -76.3351 H         1 UNK         0.2946 
    123 H123      -81.2648   25.5964  -78.0914 H         1 UNK         0.1144 
    124 H124      -83.6248   25.6622  -78.8653 H         1 UNK         0.0793 
    125 H125      -84.0746   24.4158  -77.7039 H         1 UNK         0.0793 
    126 H126      -82.9764   24.0377  -79.0247 H         1 UNK         0.0793 
    127 H127      -83.3388   26.0385  -75.9876 H         1 UNK         0.2896 
@<TRIPOS>BOND
     1    1    2 1    
     2    1   67 1    
     3    1   68 1    
     4    1   69 1    
     5    2    3 2    
     6    2    4 am   BACKBONE|DICT|INTERRES
     7    4    5 1    
     8    4   70 1    
     9    5    6 1    
    10    5   65 1    
    11    5   71 1    
    12    6    7 1    
    13    6   72 1    
    14    6   73 1    
    15    7    8 1    
    16    8    9 1    
    17    8   74 1    
    18    8   75 1    
    19    9   10 ar   
    20    9   14 ar   
    21   10   11 ar   
    22   10   76 1    
    23   11   12 ar   
    24   11   48 1    
    25   12   13 ar   
    26   12   77 1    
    27   13   14 ar   
    28   13   15 1    
    29   14   78 1    
    30   15   16 1    
    31   15   79 1    
    32   15   80 1    
    33   16   17 1    
    34   17   18 1    
    35   17   81 1    
    36   17   82 1    
    37   18   19 1    
    38   18   22 1    
    39   18   83 1    
    40   19   20 am   BACKBONE|DICT|INTERRES
    41   19   21 2    
    42   20   84 1    
    43   20   85 1    
    44   22   23 am   BACKBONE|DICT|INTERRES
    45   22   86 1    
    46   23   24 2    
    47   23   25 1    
    48   25   26 1    
    49   25   27 1    
    50   25   87 1    
    51   26   88 1    
    52   26   89 1    
    53   26   90 1    
    54   27   28 am   BACKBONE|DICT|INTERRES
    55   27   91 1    
    56   28   29 2    
    57   28   30 1    
    58   30   31 1    
    59   30   32 1    
    60   30   92 1    
    61   31   93 1    
    62   31   94 1    
    63   31   95 1    
    64   32   33 am   BACKBONE|DICT|INTERRES
    65   32   96 1    
    66   33   34 2    
    67   33   35 1    
    68   35   36 1    
    69   35   37 1    
    70   35   97 1    
    71   36   98 1    
    72   36   99 1    
    73   36  100 1    
    74   37   38 am   BACKBONE|DICT|INTERRES
    75   37  101 1    
    76   38   39 2    
    77   38   40 1    
    78   40   41 1    
    79   40   42 1    
    80   40  102 1    
    81   41  103 1    
    82   41  104 1    
    83   41  105 1    
    84   42   43 am   BACKBONE|DICT|INTERRES
    85   42  106 1    
    86   43   44 2    
    87   43   45 1    
    88   45   46 1    
    89   45   49 1    
    90   45  107 1    
    91   46   47 1    
    92   46  108 1    
    93   46  109 1    
    94   47   48 1    
    95   48  110 1    
    96   48  111 1    
    97   49   50 am   BACKBONE|DICT|INTERRES
    98   49  112 1    
    99   50   51 2    
   100   50   52 1    
   101   52   53 1    
   102   52   54 1    
   103   52  113 1    
   104   53  114 1    
   105   53  115 1    
   106   53  116 1    
   107   54   55 am   BACKBONE|DICT|INTERRES
   108   54  117 1    
   109   55   56 2    
   110   55   57 1    
   111   57   58 1    
   112   57   59 1    
   113   57  118 1    
   114   58  119 1    
   115   58  120 1    
   116   58  121 1    
   117   59   60 am   BACKBONE|DICT|INTERRES
   118   59  122 1    
   119   60   61 2    
   120   60   62 1    
   121   62   63 1    
   122   62   64 1    
   123   62  123 1    
   124   63  124 1    
   125   63  125 1    
   126   63  126 1    
   127   64   65 am   BACKBONE|DICT|INTERRES
   128   64  127 1    
   129   65   66 2    
@<TRIPOS>SUBSTRUCTURE
     1 UNK         1 GROUP             0       ****    0 ROOT    
