@<TRIPOS>MOLECULE
3R135
127   129    1
SMALL
USER_CHARGES


@<TRIPOS>ATOM
      1 CA        -82.4399   24.0131  -74.3224 C.3       0 UNK        -0.1998 
      2 C         -82.2948   25.1637  -75.3063 C.2       0 UNK         0.4909 
      3 O         -82.9472   25.1696  -76.3507 O.2       0 UNK        -0.5240 
      4 N         -81.4271   26.1333  -74.9955 N.am      1 UNK        -0.4739 
      5 CA        -81.1362   27.3272  -75.7985 C.3       1 UNK         0.0864 
      6 C6        -80.6803   28.5088  -74.9028 C.3       11 UNK        -0.0881 
      7 S7        -79.2984   28.1093  -73.7755 S.3       11 UNK        -0.2682 
      8 C8        -79.5043   29.4087  -72.5223 C.3       11 UNK         0.0289 
      9 C9        -78.2790   29.4687  -71.6282 C.ar      11 UNK        -0.0687 
     10 C10       -78.1181   28.5384  -70.5987 C.ar      11 UNK        -0.0823 
     11 C11       -76.9426   28.5173  -69.8421 C.ar      11 UNK        -0.0830 
     12 C12       -75.9621   29.4878  -70.0702 C.ar      11 UNK        -0.1021 
     13 C13       -76.1214   30.4401  -71.0837 C.ar      11 UNK        -0.0753 
     14 C14       -77.2819   30.4195  -71.8631 C.ar      11 UNK        -0.0933 
     15 C15       -75.0514   31.4953  -71.3503 C.3       11 UNK         0.0166 
     16 S16       -73.3534   30.8305  -71.3751 S.3       11 UNK        -0.2615 
     17 C17       -73.4478   29.6427  -72.7563 C.3       11 UNK        -0.0865 
     18 CA        -72.0765   28.9969  -73.0808 C.3       10 UNK         0.0862 
     19 C         -71.6596   27.9361  -72.0216 C.2       10 UNK         0.5551 
     20 N         -71.9928   26.6632  -72.1999 N.am      10 UNK        -0.7319 
     21 O         -71.0022   28.2668  -71.0380 O.2       10 UNK        -0.5018 
     22 N         -72.0598   28.4843  -74.4552 N.am      10 UNK        -0.4509 
     23 C         -70.9545   28.2063  -75.1573 C.2       10 UNK         0.4899 
     24 O         -69.8103   28.4148  -74.7528 O.2       10 UNK        -0.4839 
     25 CA        -71.1567   27.6053  -76.5558 C.3       9 UNK         0.0222 
     26 CB        -71.3504   26.0835  -76.4528 C.3       9 UNK        -0.1966 
     27 N         -72.3140   28.1984  -77.2311 N.am      9 UNK        -0.4218 
     28 C         -72.2518   29.1790  -78.1433 C.2       9 UNK         0.5020 
     29 O         -71.1973   29.6794  -78.5377 O.2       9 UNK        -0.5274 
     30 CA        -73.5790   29.6838  -78.7449 C.3       8 UNK         0.0270 
     31 CB        -73.8417   29.0068  -80.1003 C.3       8 UNK        -0.1976 
     32 N         -74.7382   29.4740  -77.8749 N.am      8 UNK        -0.4313 
     33 C         -74.9987   30.1794  -76.7662 C.2       8 UNK         0.5041 
     34 O         -74.3286   31.1434  -76.3951 O.2       8 UNK        -0.5577 
     35 CA        -76.1918   29.7163  -75.9073 C.3       7 UNK         0.0284 
     36 CB        -77.4483   30.5308  -76.2512 C.3       7 UNK        -0.1958 
     37 N         -76.4988   28.2796  -75.9866 N.am      7 UNK        -0.4454 
     38 C         -75.6368   27.2956  -75.7010 C.2       7 UNK         0.5089 
     39 O         -74.4480   27.4994  -75.4589 O.2       7 UNK        -0.5125 
     40 CA        -76.1760   25.8555  -75.7108 C.3       6 UNK         0.0408 
     41 CB        -75.3633   24.9433  -76.6479 C.3       6 UNK        -0.1791 
     42 N         -76.2559   25.2993  -74.3571 N.am      6 UNK        -0.4762 
     43 C         -75.2733   25.1053  -73.4574 C.2       6 UNK         0.5007 
     44 O         -74.0707   25.2400  -73.6836 O.2       6 UNK        -0.5032 
     45 CA        -75.7280   24.7081  -72.0364 C.3       5 UNK         0.0783 
     46 C46       -75.9639   25.9980  -71.2131 C.3       11 UNK        -0.0857 
     47 S47       -76.7286   25.7301  -69.5738 S.3       11 UNK        -0.2512 
     48 C48       -76.6954   27.4042  -68.8295 C.3       11 UNK         0.0225 
     49 N         -76.9075   23.8365  -72.0801 N.am      5 UNK        -0.4615 
     50 C         -76.8890   22.5732  -72.5203 C.2       4 UNK         0.5053 
     51 O         -75.8594   21.9708  -72.8271 O.2       4 UNK        -0.5105 
     52 CA        -78.2403   21.8632  -72.7015 C.3       4 UNK         0.0263 
     53 CB        -79.3939   22.4492  -71.8523 C.3       4 UNK        -0.1981 
     54 N         -78.5775   21.8123  -74.1290 N.am      4 UNK        -0.4224 
     55 C         -78.8400   22.8547  -74.9309 C.2       3 UNK         0.4895 
     56 O         -78.9604   24.0183  -74.5335 O.2       3 UNK        -0.5091 
     57 CA        -78.9743   22.5474  -76.4304 C.3       3 UNK         0.0250 
     58 CB        -79.9768   21.4120  -76.7186 C.3       3 UNK        -0.1996 
     59 N         -79.4084   23.7603  -77.1118 N.am      3 UNK        -0.4254 
     60 C         -79.1203   24.1329  -78.3632 C.2       2 UNK         0.5004 
     61 O         -78.4141   23.4725  -79.1257 O.2       2 UNK        -0.5226 
     62 CA        -79.7432   25.4545  -78.8588 C.3       2 UNK         0.0269 
     63 CB        -80.6057   25.2160  -80.1102 C.3       2 UNK        -0.1926 
     64 N         -80.5779   26.0849  -77.8303 N.am      2 UNK        -0.4687 
     65 C         -80.1549   26.9952  -76.9459 C.2       1 UNK         0.5165 
     66 O         -79.0375   27.5121  -76.9930 O.2       1 UNK        -0.5079 
     67 H67       -81.7216   24.0851  -73.5059 H         1 UNK         0.0900 
     68 H68       -82.2811   23.0617  -74.8279 H         1 UNK         0.0900 
     69 H69       -83.4423   24.0092  -73.8955 H         1 UNK         0.0900 
     70 H70       -80.8668   26.0489  -74.1574 H         1 UNK         0.2959 
     71 H71       -82.0621   27.6453  -76.2837 H         1 UNK         0.1079 
     72 H72       -80.4094   29.3728  -75.5116 H         1 UNK         0.0837 
     73 H73       -81.5273   28.8339  -74.2964 H         1 UNK         0.0837 
     74 H74       -79.6637   30.3695  -73.0141 H         1 UNK         0.0685 
     75 H75       -80.3965   29.2073  -71.9277 H         1 UNK         0.0685 
     76 H76       -78.8751   27.7833  -70.4354 H         1 UNK         0.1434 
     77 H77       -75.0558   29.4835  -69.4802 H         1 UNK         0.1329 
     78 H78       -77.4061   31.1363  -72.6632 H         1 UNK         0.1335 
     79 H79       -75.2362   32.0025  -72.2987 H         1 UNK         0.0680 
     80 H80       -75.1159   32.2588  -70.5742 H         1 UNK         0.0680 
     81 H81       -73.8107   30.1932  -73.6257 H         1 UNK         0.1032 
     82 H82       -74.2009   28.8800  -72.5466 H         1 UNK         0.1032 
     83 H83       -71.3268   29.7902  -73.0433 H         1 UNK         0.0461 
     84 H84       -71.6983   25.9840  -71.5176 H         1 UNK         0.3453 
     85 H85       -72.5714   26.3684  -72.9793 H         1 UNK         0.3453 
     86 H86       -72.9604   28.1977  -74.8357 H         1 UNK         0.2984 
     87 H87       -70.2507   27.7883  -77.1372 H         1 UNK         0.0554 
     88 H88       -71.4972   25.6329  -77.4344 H         1 UNK         0.0847 
     89 H89       -72.2092   25.8257  -75.8319 H         1 UNK         0.0847 
     90 H90       -70.4755   25.6103  -76.0053 H         1 UNK         0.0847 
     91 H91       -73.2240   27.9004  -76.8938 H         1 UNK         0.3141 
     92 H92       -73.4719   30.7572  -78.9165 H         1 UNK         0.0743 
     93 H93       -73.0093   29.1716  -80.7862 H         1 UNK         0.0784 
     94 H94       -73.9689   27.9284  -79.9965 H         1 UNK         0.0784 
     95 H95       -74.7359   29.4075  -80.5782 H         1 UNK         0.0784 
     96 H96       -75.3561   28.7095  -78.1056 H         1 UNK         0.3213 
     97 H97       -75.9326   29.9264  -74.8678 H         1 UNK         0.0855 
     98 H98       -77.2377   31.6013  -76.2473 H         1 UNK         0.0814 
     99 H99       -78.2380   30.3599  -75.5215 H         1 UNK         0.0814 
    100 H100      -77.8380   30.2754  -77.2372 H         1 UNK         0.0814 
    101 H101      -77.4601   28.0323  -76.2220 H         1 UNK         0.3105 
    102 H102      -77.1996   25.8756  -76.0848 H         1 UNK         0.0547 
    103 H103      -75.3490   25.3414  -77.6629 H         1 UNK         0.0837 
    104 H104      -74.3280   24.8407  -76.3244 H         1 UNK         0.0837 
    105 H105      -75.7974   23.9449  -76.6975 H         1 UNK         0.0837 
    106 H106      -77.2029   25.0989  -74.0533 H         1 UNK         0.3020 
    107 H107      -74.9120   24.1492  -71.5723 H         1 UNK         0.1245 
    108 H108      -76.6115   26.6705  -71.7778 H         1 UNK         0.0781 
    109 H109      -75.0214   26.5315  -71.0708 H         1 UNK         0.0781 
    110 H110      -75.7304   27.5410  -68.3392 H         1 UNK         0.0836 
    111 H111      -77.4483   27.4592  -68.0422 H         1 UNK         0.0836 
    112 H112      -77.7925   24.2602  -71.8434 H         1 UNK         0.3022 
    113 H113      -78.0921   20.8312  -72.3795 H         1 UNK         0.0747 
    114 H114      -80.3038   21.8621  -71.9766 H         1 UNK         0.0793 
    115 H115      -79.1425   22.4286  -70.7911 H         1 UNK         0.0793 
    116 H116      -79.6346   23.4804  -72.1093 H         1 UNK         0.0793 
    117 H117      -78.4773   20.9024  -74.5568 H         1 UNK         0.3047 
    118 H118      -77.9851   22.2637  -76.7958 H         1 UNK         0.0822 
    119 H119      -80.0882   21.2482  -77.7907 H         1 UNK         0.0807 
    120 H120      -80.9648   21.6336  -76.3143 H         1 UNK         0.0807 
    121 H121      -79.6493   20.4654  -76.2884 H         1 UNK         0.0807 
    122 H122      -79.9058   24.4118  -76.5196 H         1 UNK         0.2946 
    123 H123      -78.9191   26.1188  -79.1293 H         1 UNK         0.1144 
    124 H124      -81.0272   26.1492  -80.4841 H         1 UNK         0.0793 
    125 H125      -81.4309   24.5322  -79.9070 H         1 UNK         0.0793 
    126 H126      -80.0144   24.7835  -80.9186 H         1 UNK         0.0793 
    127 H127      -81.5035   25.6911  -77.6869 H         1 UNK         0.2896 
@<TRIPOS>BOND
     1    1    2 1    
     2    1   67 1    
     3    1   68 1    
     4    1   69 1    
     5    2    3 2    
     6    2    4 am   BACKBONE|DICT|INTERRES
     7    4    5 1    
     8    4   70 1    
     9    5    6 1    
    10    5   65 1    
    11    5   71 1    
    12    6    7 1    
    13    6   72 1    
    14    6   73 1    
    15    7    8 1    
    16    8    9 1    
    17    8   74 1    
    18    8   75 1    
    19    9   10 ar   
    20    9   14 ar   
    21   10   11 ar   
    22   10   76 1    
    23   11   12 ar   
    24   11   48 1    
    25   12   13 ar   
    26   12   77 1    
    27   13   14 ar   
    28   13   15 1    
    29   14   78 1    
    30   15   16 1    
    31   15   79 1    
    32   15   80 1    
    33   16   17 1    
    34   17   18 1    
    35   17   81 1    
    36   17   82 1    
    37   18   19 1    
    38   18   22 1    
    39   18   83 1    
    40   19   20 am   BACKBONE|DICT|INTERRES
    41   19   21 2    
    42   20   84 1    
    43   20   85 1    
    44   22   23 am   BACKBONE|DICT|INTERRES
    45   22   86 1    
    46   23   24 2    
    47   23   25 1    
    48   25   26 1    
    49   25   27 1    
    50   25   87 1    
    51   26   88 1    
    52   26   89 1    
    53   26   90 1    
    54   27   28 am   BACKBONE|DICT|INTERRES
    55   27   91 1    
    56   28   29 2    
    57   28   30 1    
    58   30   31 1    
    59   30   32 1    
    60   30   92 1    
    61   31   93 1    
    62   31   94 1    
    63   31   95 1    
    64   32   33 am   BACKBONE|DICT|INTERRES
    65   32   96 1    
    66   33   34 2    
    67   33   35 1    
    68   35   36 1    
    69   35   37 1    
    70   35   97 1    
    71   36   98 1    
    72   36   99 1    
    73   36  100 1    
    74   37   38 am   BACKBONE|DICT|INTERRES
    75   37  101 1    
    76   38   39 2    
    77   38   40 1    
    78   40   41 1    
    79   40   42 1    
    80   40  102 1    
    81   41  103 1    
    82   41  104 1    
    83   41  105 1    
    84   42   43 am   BACKBONE|DICT|INTERRES
    85   42  106 1    
    86   43   44 2    
    87   43   45 1    
    88   45   46 1    
    89   45   49 1    
    90   45  107 1    
    91   46   47 1    
    92   46  108 1    
    93   46  109 1    
    94   47   48 1    
    95   48  110 1    
    96   48  111 1    
    97   49   50 am   BACKBONE|DICT|INTERRES
    98   49  112 1    
    99   50   51 2    
   100   50   52 1    
   101   52   53 1    
   102   52   54 1    
   103   52  113 1    
   104   53  114 1    
   105   53  115 1    
   106   53  116 1    
   107   54   55 am   BACKBONE|DICT|INTERRES
   108   54  117 1    
   109   55   56 2    
   110   55   57 1    
   111   57   58 1    
   112   57   59 1    
   113   57  118 1    
   114   58  119 1    
   115   58  120 1    
   116   58  121 1    
   117   59   60 am   BACKBONE|DICT|INTERRES
   118   59  122 1    
   119   60   61 2    
   120   60   62 1    
   121   62   63 1    
   122   62   64 1    
   123   62  123 1    
   124   63  124 1    
   125   63  125 1    
   126   63  126 1    
   127   64   65 am   BACKBONE|DICT|INTERRES
   128   64  127 1    
   129   65   66 2    
@<TRIPOS>SUBSTRUCTURE
     1 UNK         1 GROUP             0       ****    0 ROOT    
