@<TRIPOS>MOLECULE
3R135
127   129    1
SMALL
USER_CHARGES


@<TRIPOS>ATOM
      1 CA        -83.8628   27.3729  -71.5605 C.3       0 UNK        -0.1998 
      2 C         -82.7529   27.3998  -72.5995 C.2       0 UNK         0.4909 
      3 O         -81.8103   26.6157  -72.5008 O.2       0 UNK        -0.5240 
      4 N         -82.8669   28.2887  -73.5969 N.am      1 UNK        -0.4739 
      5 CA        -81.9272   28.5586  -74.7017 C.3       1 UNK         0.0864 
      6 C6        -80.5177   29.0096  -74.2368 C.3       11 UNK        -0.0881 
      7 S7        -80.5408   30.6075  -73.3576 S.3       11 UNK        -0.2682 
      8 C8        -80.2812   30.1097  -71.6235 C.3       11 UNK         0.0289 
      9 C9        -78.9350   29.4354  -71.3870 C.ar      11 UNK        -0.0687 
     10 C10       -78.8828   28.1506  -70.8360 C.ar      11 UNK        -0.0823 
     11 C11       -77.6529   27.5311  -70.5814 C.ar      11 UNK        -0.0830 
     12 C12       -76.4716   28.2136  -70.8920 C.ar      11 UNK        -0.1021 
     13 C13       -76.5082   29.5035  -71.4293 C.ar      11 UNK        -0.0753 
     14 C14       -77.7434   30.1089  -71.6748 C.ar      11 UNK        -0.0933 
     15 C15       -75.2154   30.2659  -71.6826 C.3       11 UNK         0.0166 
     16 S16       -74.7595   30.2994  -73.4436 S.3       11 UNK        -0.2615 
     17 C17       -73.1714   31.1990  -73.3496 C.3       11 UNK        -0.0865 
     18 CA        -71.9269   30.3492  -73.7388 C.3       10 UNK         0.0862 
     19 C         -71.6507   29.1810  -72.7498 C.2       10 UNK         0.5551 
     20 N         -71.4818   27.9407  -73.1870 N.am      10 UNK        -0.7319 
     21 O         -71.5543   29.4139  -71.5472 O.2       10 UNK        -0.5018 
     22 N         -71.8891   30.0027  -75.1729 N.am      10 UNK        -0.4509 
     23 C         -71.5926   30.8899  -76.1358 C.2       10 UNK         0.4899 
     24 O         -71.3196   32.0695  -75.9053 O.2       10 UNK        -0.4839 
     25 CA        -71.5766   30.3904  -77.5909 C.3       9 UNK         0.0222 
     26 CB        -70.8961   31.3739  -78.5664 C.3       9 UNK        -0.1966 
     27 N         -70.9359   29.0822  -77.6660 N.am      9 UNK        -0.4218 
     28 C         -71.2006   28.1394  -78.5761 C.2       9 UNK         0.5020 
     29 O         -71.9401   28.3024  -79.5480 O.2       9 UNK        -0.5274 
     30 CA        -70.5678   26.7551  -78.3401 C.3       8 UNK         0.0270 
     31 CB        -69.2133   26.8050  -77.5958 C.3       8 UNK        -0.1976 
     32 N         -71.5089   25.8571  -77.6592 N.am      8 UNK        -0.4313 
     33 C         -72.1118   26.0723  -76.4811 C.2       8 UNK         0.5041 
     34 O         -71.8855   27.0449  -75.7528 O.2       8 UNK        -0.5577 
     35 CA        -73.1246   25.0096  -76.0280 C.3       7 UNK         0.0284 
     36 CB        -72.4326   23.9292  -75.1826 C.3       7 UNK        -0.1958 
     37 N         -74.1992   25.6102  -75.2410 N.am      7 UNK        -0.4454 
     38 C         -75.1223   26.4534  -75.7166 C.2       7 UNK         0.5089 
     39 O         -75.2356   26.7543  -76.9069 O.2       7 UNK        -0.5125 
     40 CA        -76.0914   27.0284  -74.6734 C.3       6 UNK         0.0408 
     41 CB        -77.0238   28.1073  -75.2496 C.3       6 UNK        -0.1791 
     42 N         -76.9049   25.9711  -74.0838 N.am      6 UNK        -0.4762 
     43 C         -76.5387   25.1723  -73.0739 C.2       6 UNK         0.5007 
     44 O         -75.4277   25.2031  -72.5419 O.2       6 UNK        -0.5032 
     45 CA        -77.5874   24.1452  -72.6185 C.3       5 UNK         0.0783 
     46 C46       -78.8753   24.8303  -72.0790 C.3       11 UNK        -0.0857 
     47 S47       -78.9174   24.9951  -70.2643 S.3       11 UNK        -0.2512 
     48 C48       -77.5559   26.1615  -69.9072 C.3       11 UNK         0.0225 
     49 N         -77.8756   23.2601  -73.7451 N.am      5 UNK        -0.4615 
     50 C         -77.2292   22.1166  -74.0083 C.2       4 UNK         0.5053 
     51 O         -76.3722   21.6296  -73.2710 O.2       4 UNK        -0.5105 
     52 CA        -77.6006   21.3806  -75.3102 C.3       4 UNK         0.0263 
     53 CB        -78.6188   20.2652  -75.0229 C.3       4 UNK        -0.1981 
     54 N         -78.1446   22.2735  -76.3356 N.am      4 UNK        -0.4224 
     55 C         -77.4270   23.1792  -77.0158 C.2       3 UNK         0.4895 
     56 O         -76.2017   23.2682  -76.9480 O.2       3 UNK        -0.5091 
     57 CA        -78.2079   24.1669  -77.9047 C.3       3 UNK         0.0250 
     58 CB        -78.1476   23.7277  -79.3766 C.3       3 UNK        -0.1996 
     59 N         -79.6126   24.3559  -77.5120 N.am      3 UNK        -0.4254 
     60 C         -80.0126   24.8840  -76.3473 C.2       2 UNK         0.5004 
     61 O         -79.2375   25.2252  -75.4513 O.2       2 UNK        -0.5226 
     62 CA        -81.5258   24.9844  -76.1070 C.3       2 UNK         0.0269 
     63 CB        -82.0308   23.7309  -75.3743 C.3       2 UNK        -0.1926 
     64 N         -81.8265   26.1601  -75.2921 N.am      2 UNK        -0.4687 
     65 C         -81.8064   27.4202  -75.7390 C.2       1 UNK         0.5165 
     66 O         -81.6927   27.7083  -76.9318 O.2       1 UNK        -0.5079 
     67 H67       -84.3385   26.3927  -71.5462 H         1 UNK         0.0900 
     68 H68       -83.4512   27.5663  -70.5703 H         1 UNK         0.0900 
     69 H69       -84.6296   28.1207  -71.7613 H         1 UNK         0.0900 
     70 H70       -83.6915   28.8728  -73.6138 H         1 UNK         0.2959 
     71 H71       -82.3677   29.3942  -75.2487 H         1 UNK         0.1079 
     72 H72       -79.8651   29.1477  -75.1009 H         1 UNK         0.0837 
     73 H73       -80.0404   28.2412  -73.6267 H         1 UNK         0.0837 
     74 H74       -80.3411   30.9985  -70.9943 H         1 UNK         0.0685 
     75 H75       -81.1022   29.4628  -71.3135 H         1 UNK         0.0685 
     76 H76       -79.8042   27.6393  -70.5931 H         1 UNK         0.1434 
     77 H77       -75.5158   27.7488  -70.6903 H         1 UNK         0.1329 
     78 H78       -77.7780   31.1096  -72.0835 H         1 UNK         0.1335 
     79 H79       -74.3987   29.8223  -71.1107 H         1 UNK         0.0680 
     80 H80       -75.3231   31.2895  -71.3205 H         1 UNK         0.0680 
     81 H81       -73.2452   32.0728  -73.9978 H         1 UNK         0.1032 
     82 H82       -73.0386   31.6090  -72.3468 H         1 UNK         0.1032 
     83 H83       -71.0617   30.9949  -73.5745 H         1 UNK         0.0461 
     84 H84       -71.5837   27.6851  -74.1684 H         1 UNK         0.3453 
     85 H85       -71.2887   27.2192  -72.5124 H         1 UNK         0.3453 
     86 H86       -72.0936   29.0370  -75.4118 H         1 UNK         0.2984 
     87 H87       -72.6232   30.2853  -77.8841 H         1 UNK         0.0554 
     88 H88       -71.3864   32.3481  -78.5488 H         1 UNK         0.0847 
     89 H89       -70.9409   31.0130  -79.5938 H         1 UNK         0.0847 
     90 H90       -69.8472   31.5294  -78.3114 H         1 UNK         0.0847 
     91 H91       -70.3541   28.8276  -76.8790 H         1 UNK         0.3141 
     92 H92       -70.3830   26.3280  -79.3271 H         1 UNK         0.0743 
     93 H93       -68.7410   25.8227  -77.5862 H         1 UNK         0.0784 
     94 H94       -68.5199   27.4875  -78.0894 H         1 UNK         0.0784 
     95 H95       -69.3122   27.1264  -76.5587 H         1 UNK         0.0784 
     96 H96       -71.7787   25.0378  -78.1863 H         1 UNK         0.3213 
     97 H97       -73.5724   24.5419  -76.9077 H         1 UNK         0.0855 
     98 H98       -71.9780   24.3508  -74.2850 H         1 UNK         0.0814 
     99 H99       -71.6413   23.4357  -75.7483 H         1 UNK         0.0814 
    100 H100      -73.1382   23.1579  -74.8721 H         1 UNK         0.0814 
    101 H101      -74.2096   25.4215  -74.2453 H         1 UNK         0.3105 
    102 H102      -75.4893   27.4911  -73.8894 H         1 UNK         0.0547 
    103 H103      -76.4534   28.8951  -75.7432 H         1 UNK         0.0837 
    104 H104      -77.7204   27.6952  -75.9807 H         1 UNK         0.0837 
    105 H105      -77.5998   28.5809  -74.4551 H         1 UNK         0.0837 
    106 H106      -77.8089   25.8066  -74.5255 H         1 UNK         0.3020 
    107 H107      -77.1432   23.5529  -71.8149 H         1 UNK         0.1245 
    108 H108      -79.7491   24.2293  -72.3364 H         1 UNK         0.0781 
    109 H109      -79.0702   25.8021  -72.5371 H         1 UNK         0.0781 
    110 H110      -76.6105   25.6793  -70.1575 H         1 UNK         0.0836 
    111 H111      -77.5280   26.3226  -68.8290 H         1 UNK         0.0836 
    112 H112      -78.5126   23.6350  -74.4382 H         1 UNK         0.3022 
    113 H113      -76.6897   20.9224  -75.7017 H         1 UNK         0.0747 
    114 H114      -78.8421   19.6900  -75.9217 H         1 UNK         0.0793 
    115 H115      -78.2310   19.5655  -74.2810 H         1 UNK         0.0793 
    116 H116      -79.5575   20.6635  -74.6353 H         1 UNK         0.0793 
    117 H117      -79.1432   22.2504  -76.4792 H         1 UNK         0.3047 
    118 H118      -77.7084   25.1346  -77.8156 H         1 UNK         0.0822 
    119 H119      -78.6088   24.4672  -80.0314 H         1 UNK         0.0807 
    120 H120      -78.6528   22.7741  -79.5353 H         1 UNK         0.0807 
    121 H121      -77.1143   23.6078  -79.7056 H         1 UNK         0.0807 
    122 H122      -80.3096   24.0831  -78.1909 H         1 UNK         0.2946 
    123 H123      -82.0405   25.0740  -77.0664 H         1 UNK         0.1144 
    124 H124      -83.1045   23.7851  -75.1935 H         1 UNK         0.0793 
    125 H125      -81.5368   23.6004  -74.4101 H         1 UNK         0.0793 
    126 H126      -81.8478   22.8302  -75.9616 H         1 UNK         0.0793 
    127 H127      -81.8408   26.0359  -74.2827 H         1 UNK         0.2896 
@<TRIPOS>BOND
     1    1    2 1    
     2    1   67 1    
     3    1   68 1    
     4    1   69 1    
     5    2    3 2    
     6    2    4 am   BACKBONE|DICT|INTERRES
     7    4    5 1    
     8    4   70 1    
     9    5    6 1    
    10    5   65 1    
    11    5   71 1    
    12    6    7 1    
    13    6   72 1    
    14    6   73 1    
    15    7    8 1    
    16    8    9 1    
    17    8   74 1    
    18    8   75 1    
    19    9   10 ar   
    20    9   14 ar   
    21   10   11 ar   
    22   10   76 1    
    23   11   12 ar   
    24   11   48 1    
    25   12   13 ar   
    26   12   77 1    
    27   13   14 ar   
    28   13   15 1    
    29   14   78 1    
    30   15   16 1    
    31   15   79 1    
    32   15   80 1    
    33   16   17 1    
    34   17   18 1    
    35   17   81 1    
    36   17   82 1    
    37   18   19 1    
    38   18   22 1    
    39   18   83 1    
    40   19   20 am   BACKBONE|DICT|INTERRES
    41   19   21 2    
    42   20   84 1    
    43   20   85 1    
    44   22   23 am   BACKBONE|DICT|INTERRES
    45   22   86 1    
    46   23   24 2    
    47   23   25 1    
    48   25   26 1    
    49   25   27 1    
    50   25   87 1    
    51   26   88 1    
    52   26   89 1    
    53   26   90 1    
    54   27   28 am   BACKBONE|DICT|INTERRES
    55   27   91 1    
    56   28   29 2    
    57   28   30 1    
    58   30   31 1    
    59   30   32 1    
    60   30   92 1    
    61   31   93 1    
    62   31   94 1    
    63   31   95 1    
    64   32   33 am   BACKBONE|DICT|INTERRES
    65   32   96 1    
    66   33   34 2    
    67   33   35 1    
    68   35   36 1    
    69   35   37 1    
    70   35   97 1    
    71   36   98 1    
    72   36   99 1    
    73   36  100 1    
    74   37   38 am   BACKBONE|DICT|INTERRES
    75   37  101 1    
    76   38   39 2    
    77   38   40 1    
    78   40   41 1    
    79   40   42 1    
    80   40  102 1    
    81   41  103 1    
    82   41  104 1    
    83   41  105 1    
    84   42   43 am   BACKBONE|DICT|INTERRES
    85   42  106 1    
    86   43   44 2    
    87   43   45 1    
    88   45   46 1    
    89   45   49 1    
    90   45  107 1    
    91   46   47 1    
    92   46  108 1    
    93   46  109 1    
    94   47   48 1    
    95   48  110 1    
    96   48  111 1    
    97   49   50 am   BACKBONE|DICT|INTERRES
    98   49  112 1    
    99   50   51 2    
   100   50   52 1    
   101   52   53 1    
   102   52   54 1    
   103   52  113 1    
   104   53  114 1    
   105   53  115 1    
   106   53  116 1    
   107   54   55 am   BACKBONE|DICT|INTERRES
   108   54  117 1    
   109   55   56 2    
   110   55   57 1    
   111   57   58 1    
   112   57   59 1    
   113   57  118 1    
   114   58  119 1    
   115   58  120 1    
   116   58  121 1    
   117   59   60 am   BACKBONE|DICT|INTERRES
   118   59  122 1    
   119   60   61 2    
   120   60   62 1    
   121   62   63 1    
   122   62   64 1    
   123   62  123 1    
   124   63  124 1    
   125   63  125 1    
   126   63  126 1    
   127   64   65 am   BACKBONE|DICT|INTERRES
   128   64  127 1    
   129   65   66 2    
@<TRIPOS>SUBSTRUCTURE
     1 UNK         1 GROUP             0       ****    0 ROOT    
