@<TRIPOS>MOLECULE
3R135
127   129    1
SMALL
USER_CHARGES


@<TRIPOS>ATOM
      1 CA        -86.2616   28.6220  -73.1605 C.3       0 UNK        -0.1998 
      2 C         -85.0583   29.2502  -73.8471 C.2       0 UNK         0.4909 
      3 O         -85.2156   29.9192  -74.8687 O.2       0 UNK        -0.5240 
      4 N         -83.8571   29.0423  -73.2926 N.am      1 UNK        -0.4739 
      5 CA        -82.5839   29.5366  -73.8335 C.3       1 UNK         0.0864 
      6 C6        -81.4535   29.5027  -72.7687 C.3       11 UNK        -0.0881 
      7 S7        -81.1989   27.8581  -72.0070 S.3       11 UNK        -0.2682 
      8 C8        -79.8276   27.1945  -73.0031 C.3       11 UNK         0.0289 
      9 C9        -78.4832   27.3816  -72.3210 C.ar      11 UNK        -0.0687 
     10 C10       -77.9871   26.3865  -71.4754 C.ar      11 UNK        -0.0823 
     11 C11       -76.7259   26.5164  -70.8852 C.ar      11 UNK        -0.0830 
     12 C12       -75.9698   27.6674  -71.1276 C.ar      11 UNK        -0.1021 
     13 C13       -76.4683   28.6823  -71.9507 C.ar      11 UNK        -0.0753 
     14 C14       -77.7228   28.5311  -72.5500 C.ar      11 UNK        -0.0933 
     15 C15       -75.6632   29.9503  -72.1845 C.3       11 UNK         0.0166 
     16 S16       -74.9856   29.9956  -73.8682 S.3       11 UNK        -0.2615 
     17 C17       -74.1745   31.6337  -73.8759 C.3       11 UNK        -0.0865 
     18 CA        -72.6300   31.5635  -74.0126 C.3       10 UNK         0.0862 
     19 C         -71.9148   31.1620  -72.6870 C.2       10 UNK         0.5551 
     20 N         -70.9516   30.2472  -72.6932 N.am      10 UNK        -0.7319 
     21 O         -72.2280   31.7060  -71.6308 O.2       10 UNK        -0.5018 
     22 N         -72.2511   30.7547  -75.1776 N.am      10 UNK        -0.4509 
     23 C         -71.1784   30.9381  -75.9509 C.2       10 UNK         0.4899 
     24 O         -70.3906   31.8779  -75.8326 O.2       10 UNK        -0.4839 
     25 CA        -70.9589   29.8528  -77.0191 C.3       9 UNK         0.0222 
     26 CB        -69.6398   30.0264  -77.8020 C.3       9 UNK        -0.1966 
     27 N         -71.0670   28.4994  -76.4559 N.am      9 UNK        -0.4218 
     28 C         -70.2894   27.9474  -75.5079 C.2       9 UNK         0.5020 
     29 O         -69.3797   28.5538  -74.9407 O.2       9 UNK        -0.5274 
     30 CA        -70.5712   26.4883  -75.0841 C.3       8 UNK         0.0270 
     31 CB        -70.9224   26.4249  -73.5873 C.3       8 UNK        -0.1976 
     32 N         -71.6371   25.8299  -75.8449 N.am      8 UNK        -0.4313 
     33 C         -71.5799   25.4936  -77.1432 C.2       8 UNK         0.5041 
     34 O         -70.5548   25.5812  -77.8194 O.2       8 UNK        -0.5577 
     35 CA        -72.8851   25.0311  -77.8247 C.3       7 UNK         0.0284 
     36 CB        -72.8038   23.5393  -78.1847 C.3       7 UNK        -0.1958 
     37 N         -74.0958   25.2792  -77.0320 N.am      7 UNK        -0.4454 
     38 C         -74.5552   26.4902  -76.6729 C.2       7 UNK         0.5089 
     39 O         -74.0452   27.5449  -77.0552 O.2       7 UNK        -0.5125 
     40 CA        -75.7241   26.5410  -75.6666 C.3       6 UNK         0.0408 
     41 CB        -77.0205   26.9911  -76.3562 C.3       6 UNK        -0.1791 
     42 N         -75.9513   25.2816  -74.9449 N.am      6 UNK        -0.4762 
     43 C         -75.0737   24.7347  -74.0846 C.2       6 UNK         0.5007 
     44 O         -73.9735   25.2367  -73.8500 O.2       6 UNK        -0.5032 
     45 CA        -75.4271   23.3644  -73.4519 C.3       5 UNK         0.0783 
     46 C46       -76.0378   23.4790  -72.0319 C.3       11 UNK        -0.0857 
     47 S47       -74.9905   24.3334  -70.8023 S.3       11 UNK        -0.2512 
     48 C48       -76.1907   25.4238  -69.9684 C.3       11 UNK         0.0225 
     49 N         -76.3069   22.5547  -74.3010 N.am      5 UNK        -0.4615 
     50 C         -76.0321   22.1174  -75.5369 C.2       4 UNK         0.5053 
     51 O         -74.9538   22.2978  -76.0995 O.2       4 UNK        -0.5105 
     52 CA        -77.1733   21.4041  -76.2891 C.3       4 UNK         0.0263 
     53 CB        -77.0479   19.8804  -76.1326 C.3       4 UNK        -0.1981 
     54 N         -78.5189   21.8300  -75.8735 N.am      4 UNK        -0.4224 
     55 C         -78.9796   23.0853  -75.9666 C.2       3 UNK         0.4895 
     56 O         -78.3203   24.0213  -76.4267 O.2       3 UNK        -0.5091 
     57 CA        -80.3730   23.3608  -75.3896 C.3       3 UNK         0.0250 
     58 CB        -80.3322   23.2875  -73.8478 C.3       3 UNK        -0.1996 
     59 N         -80.7756   24.6900  -75.8467 N.am      3 UNK        -0.4254 
     60 C         -81.9806   25.2551  -75.7302 C.2       2 UNK         0.5004 
     61 O         -82.9414   24.7322  -75.1612 O.2       2 UNK        -0.5226 
     62 CA        -82.1452   26.6475  -76.3491 C.3       2 UNK         0.0269 
     63 CB        -83.1731   26.6404  -77.4939 C.3       2 UNK        -0.1926 
     64 N         -82.5841   27.5547  -75.2950 N.am      2 UNK        -0.4687 
     65 C         -82.1520   28.8108  -75.1270 C.2       1 UNK         0.5165 
     66 O         -81.4123   29.3890  -75.9246 O.2       1 UNK        -0.5079 
     67 H67       -86.7656   27.9361  -73.8409 H         1 UNK         0.0900 
     68 H68       -85.9772   28.0659  -72.2674 H         1 UNK         0.0900 
     69 H69       -86.9717   29.3946  -72.8669 H         1 UNK         0.0900 
     70 H70       -83.7799   28.4868  -72.4514 H         1 UNK         0.2959 
     71 H71       -82.7347   30.5821  -74.1130 H         1 UNK         0.1079 
     72 H72       -80.5138   29.8725  -73.1832 H         1 UNK         0.0837 
     73 H73       -81.7019   30.1971  -71.9646 H         1 UNK         0.0837 
     74 H74       -80.0131   26.1348  -73.1704 H         1 UNK         0.0685 
     75 H75       -79.8081   27.6492  -73.9935 H         1 UNK         0.0685 
     76 H76       -78.5840   25.5053  -71.2847 H         1 UNK         0.1434 
     77 H77       -74.9957   27.7735  -70.6697 H         1 UNK         0.1329 
     78 H78       -78.1012   29.3080  -73.1999 H         1 UNK         0.1335 
     79 H79       -76.3047   30.8185  -72.0263 H         1 UNK         0.0680 
     80 H80       -74.8457   30.0296  -71.4658 H         1 UNK         0.0680 
     81 H81       -74.5799   32.1903  -74.7222 H         1 UNK         0.1032 
     82 H82       -74.4643   32.2091  -72.9947 H         1 UNK         0.1032 
     83 H83       -72.2951   32.5850  -74.2023 H         1 UNK         0.0461 
     84 H84       -70.6370   29.8280  -73.5569 H         1 UNK         0.3453 
     85 H85       -70.4978   30.0095  -71.8259 H         1 UNK         0.3453 
     86 H86       -72.8341   29.9454  -75.3405 H         1 UNK         0.2984 
     87 H87       -71.7788   29.9528  -77.7319 H         1 UNK         0.0554 
     88 H88       -69.6146   30.9892  -78.3138 H         1 UNK         0.0847 
     89 H89       -69.5248   29.2529  -78.5613 H         1 UNK         0.0847 
     90 H90       -68.7686   29.9855  -77.1474 H         1 UNK         0.0847 
     91 H91       -71.8360   27.9438  -76.8118 H         1 UNK         0.3141 
     92 H92       -69.6494   25.9255  -75.2442 H         1 UNK         0.0743 
     93 H93       -70.1186   26.8358  -72.9750 H         1 UNK         0.0784 
     94 H94       -71.8263   26.9932  -73.3620 H         1 UNK         0.0784 
     95 H95       -71.0837   25.3979  -73.2589 H         1 UNK         0.0784 
     96 H96       -72.5122   25.6912  -75.3495 H         1 UNK         0.3213 
     97 H97       -72.9807   25.6002  -78.7518 H         1 UNK         0.0855 
     98 H98       -72.6517   22.9202  -77.2999 H         1 UNK         0.0814 
     99 H99       -71.9701   23.3466  -78.8613 H         1 UNK         0.0814 
    100 H100      -73.7109   23.1974  -78.6833 H         1 UNK         0.0814 
    101 H101      -74.5613   24.4609  -76.6572 H         1 UNK         0.3105 
    102 H102      -75.4688   27.2921  -74.9177 H         1 UNK         0.0547 
    103 H103      -77.8510   27.0383  -75.6520 H         1 UNK         0.0837 
    104 H104      -76.9033   27.9874  -76.7845 H         1 UNK         0.0837 
    105 H105      -77.2998   26.3204  -77.1689 H         1 UNK         0.0837 
    106 H106      -76.8042   24.7818  -75.1703 H         1 UNK         0.3020 
    107 H107      -74.4839   22.8200  -73.3654 H         1 UNK         0.1245 
    108 H108      -76.2286   22.4792  -71.6384 H         1 UNK         0.0781 
    109 H109      -77.0141   23.9564  -72.0906 H         1 UNK         0.0781 
    110 H110      -75.7057   25.8827  -69.1056 H         1 UNK         0.0836 
    111 H111      -77.0077   24.8212  -69.5681 H         1 UNK         0.0836 
    112 H112      -77.2187   22.3454  -73.9243 H         1 UNK         0.3022 
    113 H113      -77.0630   21.6499  -77.3475 H         1 UNK         0.0747 
    114 H114      -77.7883   19.3564  -76.7373 H         1 UNK         0.0793 
    115 H115      -76.0652   19.5348  -76.4573 H         1 UNK         0.0793 
    116 H116      -77.1768   19.5678  -75.0956 H         1 UNK         0.0793 
    117 H117      -79.1182   21.1176  -75.4807 H         1 UNK         0.3047 
    118 H118      -81.0768   22.6254  -75.7846 H         1 UNK         0.0822 
    119 H119      -80.1448   22.2676  -73.5107 H         1 UNK         0.0807 
    120 H120      -81.2744   23.5981  -73.3970 H         1 UNK         0.0807 
    121 H121      -79.5407   23.9122  -73.4338 H         1 UNK         0.0807 
    122 H122      -80.0334   25.1678  -76.3456 H         1 UNK         0.2946 
    123 H123      -81.1809   26.9742  -76.7463 H         1 UNK         0.1144 
    124 H124      -83.2720   27.6294  -77.9417 H         1 UNK         0.0793 
    125 H125      -84.1602   26.3302  -77.1486 H         1 UNK         0.0793 
    126 H126      -82.8711   25.9532  -78.2853 H         1 UNK         0.0793 
    127 H127      -83.1624   27.1390  -74.5765 H         1 UNK         0.2896 
@<TRIPOS>BOND
     1    1    2 1    
     2    1   67 1    
     3    1   68 1    
     4    1   69 1    
     5    2    3 2    
     6    2    4 am   BACKBONE|DICT|INTERRES
     7    4    5 1    
     8    4   70 1    
     9    5    6 1    
    10    5   65 1    
    11    5   71 1    
    12    6    7 1    
    13    6   72 1    
    14    6   73 1    
    15    7    8 1    
    16    8    9 1    
    17    8   74 1    
    18    8   75 1    
    19    9   10 ar   
    20    9   14 ar   
    21   10   11 ar   
    22   10   76 1    
    23   11   12 ar   
    24   11   48 1    
    25   12   13 ar   
    26   12   77 1    
    27   13   14 ar   
    28   13   15 1    
    29   14   78 1    
    30   15   16 1    
    31   15   79 1    
    32   15   80 1    
    33   16   17 1    
    34   17   18 1    
    35   17   81 1    
    36   17   82 1    
    37   18   19 1    
    38   18   22 1    
    39   18   83 1    
    40   19   20 am   BACKBONE|DICT|INTERRES
    41   19   21 2    
    42   20   84 1    
    43   20   85 1    
    44   22   23 am   BACKBONE|DICT|INTERRES
    45   22   86 1    
    46   23   24 2    
    47   23   25 1    
    48   25   26 1    
    49   25   27 1    
    50   25   87 1    
    51   26   88 1    
    52   26   89 1    
    53   26   90 1    
    54   27   28 am   BACKBONE|DICT|INTERRES
    55   27   91 1    
    56   28   29 2    
    57   28   30 1    
    58   30   31 1    
    59   30   32 1    
    60   30   92 1    
    61   31   93 1    
    62   31   94 1    
    63   31   95 1    
    64   32   33 am   BACKBONE|DICT|INTERRES
    65   32   96 1    
    66   33   34 2    
    67   33   35 1    
    68   35   36 1    
    69   35   37 1    
    70   35   97 1    
    71   36   98 1    
    72   36   99 1    
    73   36  100 1    
    74   37   38 am   BACKBONE|DICT|INTERRES
    75   37  101 1    
    76   38   39 2    
    77   38   40 1    
    78   40   41 1    
    79   40   42 1    
    80   40  102 1    
    81   41  103 1    
    82   41  104 1    
    83   41  105 1    
    84   42   43 am   BACKBONE|DICT|INTERRES
    85   42  106 1    
    86   43   44 2    
    87   43   45 1    
    88   45   46 1    
    89   45   49 1    
    90   45  107 1    
    91   46   47 1    
    92   46  108 1    
    93   46  109 1    
    94   47   48 1    
    95   48  110 1    
    96   48  111 1    
    97   49   50 am   BACKBONE|DICT|INTERRES
    98   49  112 1    
    99   50   51 2    
   100   50   52 1    
   101   52   53 1    
   102   52   54 1    
   103   52  113 1    
   104   53  114 1    
   105   53  115 1    
   106   53  116 1    
   107   54   55 am   BACKBONE|DICT|INTERRES
   108   54  117 1    
   109   55   56 2    
   110   55   57 1    
   111   57   58 1    
   112   57   59 1    
   113   57  118 1    
   114   58  119 1    
   115   58  120 1    
   116   58  121 1    
   117   59   60 am   BACKBONE|DICT|INTERRES
   118   59  122 1    
   119   60   61 2    
   120   60   62 1    
   121   62   63 1    
   122   62   64 1    
   123   62  123 1    
   124   63  124 1    
   125   63  125 1    
   126   63  126 1    
   127   64   65 am   BACKBONE|DICT|INTERRES
   128   64  127 1    
   129   65   66 2    
@<TRIPOS>SUBSTRUCTURE
     1 UNK         1 GROUP             0       ****    0 ROOT    
