@<TRIPOS>MOLECULE
3R135
127   129    1
SMALL
USER_CHARGES


@<TRIPOS>ATOM
      1 CA        -81.9115   27.4320  -72.7936 C.3       0 UNK        -0.1998 
      2 C         -81.0480   26.4025  -73.5031 C.2       0 UNK         0.4909 
      3 O         -81.0505   26.3364  -74.7320 O.2       0 UNK        -0.5240 
      4 N         -80.2978   25.5882  -72.7507 N.am      1 UNK        -0.4739 
      5 CA        -79.3999   24.5576  -73.2927 C.3       1 UNK         0.0864 
      6 C6        -78.3424   24.1036  -72.2586 C.3       11 UNK        -0.0881 
      7 S7        -76.9557   25.2878  -72.2070 S.3       11 UNK        -0.2682 
      8 C8        -77.4873   26.4939  -70.9517 C.3       11 UNK         0.0289 
      9 C9        -77.1676   27.9093  -71.4093 C.ar      11 UNK        -0.0687 
     10 C10       -78.0440   28.5831  -72.2654 C.ar      11 UNK        -0.0823 
     11 C11       -77.7391   29.8626  -72.7398 C.ar      11 UNK        -0.0830 
     12 C12       -76.5697   30.4883  -72.2999 C.ar      11 UNK        -0.1021 
     13 C13       -75.6884   29.8349  -71.4325 C.ar      11 UNK        -0.0753 
     14 C14       -75.9927   28.5428  -70.9927 C.ar      11 UNK        -0.0933 
     15 C15       -74.4256   30.5353  -70.9450 C.3       11 UNK         0.0166 
     16 S16       -72.9603   30.1434  -71.9578 S.3       11 UNK        -0.2615 
     17 C17       -73.2888   31.0785  -73.4911 C.3       11 UNK        -0.0865 
     18 CA        -73.1371   30.1985  -74.7684 C.3       10 UNK         0.0862 
     19 C         -73.8538   30.8057  -76.0153 C.2       10 UNK         0.5551 
     20 N         -73.3531   30.6034  -77.2284 N.am      10 UNK        -0.7319 
     21 O         -74.8916   31.4516  -75.8902 O.2       10 UNK        -0.5018 
     22 N         -71.7417   29.7798  -75.0110 N.am      10 UNK        -0.4509 
     23 C         -70.7035   30.5942  -75.2629 C.2       10 UNK         0.4899 
     24 O         -70.7983   31.8217  -75.3093 O.2       10 UNK        -0.4839 
     25 CA        -69.3323   29.9476  -75.5589 C.3       9 UNK         0.0222 
     26 CB        -68.1496   30.8122  -75.0697 C.3       9 UNK        -0.1966 
     27 N         -69.2052   28.5607  -75.0965 N.am      9 UNK        -0.4218 
     28 C         -69.2033   28.1138  -73.8326 C.2       9 UNK         0.5020 
     29 O         -69.2469   28.8305  -72.8309 O.2       9 UNK        -0.5274 
     30 CA        -69.1839   26.5831  -73.6719 C.3       8 UNK         0.0270 
     31 CB        -68.0989   26.1394  -72.6751 C.3       8 UNK        -0.1976 
     32 N         -70.4817   26.0533  -73.2430 N.am      8 UNK        -0.4313 
     33 C         -71.6507   26.2324  -73.8739 C.2       8 UNK         0.5041 
     34 O         -71.7834   26.9008  -74.9034 O.2       8 UNK        -0.5577 
     35 CA        -72.8757   25.5642  -73.2223 C.3       7 UNK         0.0284 
     36 CB        -73.3948   26.4246  -72.0611 C.3       7 UNK        -0.1958 
     37 N         -73.9709   25.3396  -74.1698 N.am      7 UNK        -0.4454 
     38 C         -73.9129   24.5425  -75.2443 C.2       7 UNK         0.5089 
     39 O         -72.9488   23.8169  -75.4962 O.2       7 UNK        -0.5125 
     40 CA        -75.1271   24.5171  -76.1969 C.3       6 UNK         0.0408 
     41 CB        -75.6621   23.0834  -76.3612 C.3       6 UNK        -0.1791 
     42 N         -76.2515   25.3806  -75.8223 N.am      6 UNK        -0.4762 
     43 C         -76.3008   26.7188  -75.9127 C.2       6 UNK         0.5007 
     44 O         -75.3376   27.4204  -76.2197 O.2       6 UNK        -0.5032 
     45 CA        -77.6871   27.3482  -75.6375 C.3       5 UNK         0.0783 
     46 C46       -77.7309   28.8887  -75.8188 C.3       11 UNK        -0.0857 
     47 S47       -79.2672   29.5734  -75.1036 S.3       11 UNK        -0.2512 
     48 C48       -78.6624   30.5948  -73.7126 C.3       11 UNK         0.0225 
     49 N         -78.7621   26.6437  -76.3632 N.am      5 UNK        -0.4615 
     50 C         -78.8174   26.4149  -77.6856 C.2       4 UNK         0.5053 
     51 O         -78.0080   26.8750  -78.4910 O.2       4 UNK        -0.5105 
     52 CA        -79.9190   25.4843  -78.2199 C.3       4 UNK         0.0263 
     53 CB        -79.3464   24.0689  -78.4371 C.3       4 UNK        -0.1981 
     54 N         -81.1149   25.4156  -77.3741 N.am      4 UNK        -0.4224 
     55 C         -82.3214   25.0196  -77.8005 C.2       3 UNK         0.4895 
     56 O         -82.5654   24.6920  -78.9641 O.2       3 UNK        -0.5091 
     57 CA        -83.4353   24.9820  -76.7371 C.3       3 UNK         0.0250 
     58 CB        -84.8099   24.5659  -77.3051 C.3       3 UNK        -0.1996 
     59 N         -83.0710   24.1576  -75.5775 N.am      3 UNK        -0.4254 
     60 C         -82.8226   22.8379  -75.5385 C.2       2 UNK         0.5004 
     61 O         -82.9053   22.0844  -76.5098 O.2       2 UNK        -0.5226 
     62 CA        -82.4089   22.2827  -74.1575 C.3       2 UNK         0.0269 
     63 CB        -81.9647   20.8036  -74.1964 C.3       2 UNK        -0.1926 
     64 N         -81.4015   23.1354  -73.5080 N.am      2 UNK        -0.4687 
     65 C         -80.1555   23.3820  -73.9455 C.2       1 UNK         0.5165 
     66 O         -79.6150   22.7795  -74.8723 O.2       1 UNK        -0.5079 
     67 H67       -81.6501   28.4337  -73.1338 H         1 UNK         0.0900 
     68 H68       -81.7837   27.3962  -71.7120 H         1 UNK         0.0900 
     69 H69       -82.9632   27.2596  -73.0199 H         1 UNK         0.0900 
     70 H70       -80.3412   25.6569  -71.7439 H         1 UNK         0.2959 
     71 H71       -78.8615   25.0079  -74.1254 H         1 UNK         0.1079 
     72 H72       -77.9133   23.1376  -72.5337 H         1 UNK         0.0837 
     73 H73       -78.7749   23.9686  -71.2658 H         1 UNK         0.0837 
     74 H74       -78.5555   26.4058  -70.7557 H         1 UNK         0.0685 
     75 H75       -76.9854   26.2713  -70.0089 H         1 UNK         0.0685 
     76 H76       -78.9545   28.1010  -72.5847 H         1 UNK         0.1434 
     77 H77       -76.3492   31.4925  -72.6331 H         1 UNK         0.1329 
     78 H78       -75.3123   28.0301  -70.3268 H         1 UNK         0.1335 
     79 H79       -74.2222   30.2388  -69.9149 H         1 UNK         0.0680 
     80 H80       -74.5726   31.6163  -70.9215 H         1 UNK         0.0680 
     81 H81       -72.6241   31.9416  -73.5230 H         1 UNK         0.1032 
     82 H82       -74.2880   31.5028  -73.4325 H         1 UNK         0.1032 
     83 H83       -73.6826   29.2716  -74.5848 H         1 UNK         0.0461 
     84 H84       -73.8264   30.9888  -78.0298 H         1 UNK         0.3453 
     85 H85       -72.5181   30.0533  -77.3471 H         1 UNK         0.3453 
     86 H86       -71.5945   28.7721  -75.0099 H         1 UNK         0.2984 
     87 H87       -69.2643   29.8979  -76.6464 H         1 UNK         0.0554 
     88 H88       -68.1503   31.7887  -75.5555 H         1 UNK         0.0847 
     89 H89       -67.1924   30.3424  -75.2953 H         1 UNK         0.0847 
     90 H90       -68.1931   30.9879  -73.9945 H         1 UNK         0.0847 
     91 H91       -69.2151   27.8654  -75.8309 H         1 UNK         0.3141 
     92 H92       -68.9513   26.1314  -74.6386 H         1 UNK         0.0743 
     93 H93       -68.2996   26.5067  -71.6676 H         1 UNK         0.0784 
     94 H94       -68.0213   25.0530  -72.6278 H         1 UNK         0.0784 
     95 H95       -67.1201   26.5200  -72.9705 H         1 UNK         0.0784 
     96 H96       -70.4787   25.5201  -72.3855 H         1 UNK         0.3213 
     97 H97       -72.5670   24.5922  -72.8318 H         1 UNK         0.0855 
     98 H98       -72.5961   26.6909  -71.3676 H         1 UNK         0.0814 
     99 H99       -74.1549   25.8981  -71.4852 H         1 UNK         0.0814 
    100 H100      -73.8310   27.3542  -72.4267 H         1 UNK         0.0814 
    101 H101      -74.7961   25.9076  -74.0531 H         1 UNK         0.3105 
    102 H102      -74.7644   24.8540  -77.1702 H         1 UNK         0.0547 
    103 H103      -74.8782   22.4050  -76.7006 H         1 UNK         0.0837 
    104 H104      -76.0497   22.6883  -75.4212 H         1 UNK         0.0837 
    105 H105      -76.4624   23.0386  -77.1002 H         1 UNK         0.0837 
    106 H106      -77.0968   24.8955  -75.5630 H         1 UNK         0.3020 
    107 H107      -77.8605   27.1518  -74.5804 H         1 UNK         0.1245 
    108 H108      -77.6770   29.1571  -76.8748 H         1 UNK         0.0781 
    109 H109      -76.8731   29.3661  -75.3414 H         1 UNK         0.0781 
    110 H110      -79.5215   30.9755  -73.1592 H         1 UNK         0.0836 
    111 H111      -78.1579   31.4665  -74.1328 H         1 UNK         0.0836 
    112 H112      -79.5373   26.3428  -75.7821 H         1 UNK         0.3022 
    113 H113      -80.2134   25.8894  -79.1906 H         1 UNK         0.0747 
    114 H114      -78.4388   24.0984  -79.0419 H         1 UNK         0.0793 
    115 H115      -79.0939   23.5905  -77.4903 H         1 UNK         0.0793 
    116 H116      -80.0560   23.4246  -78.9561 H         1 UNK         0.0793 
    117 H117      -81.0344   25.7245  -76.4071 H         1 UNK         0.3047 
    118 H118      -83.5338   26.0039  -76.3666 H         1 UNK         0.0822 
    119 H119      -84.7893   23.5619  -77.7301 H         1 UNK         0.0807 
    120 H120      -85.1246   25.2457  -78.0978 H         1 UNK         0.0807 
    121 H121      -85.5807   24.5883  -76.5349 H         1 UNK         0.0807 
    122 H122      -82.9201   24.6776  -74.7252 H         1 UNK         0.2946 
    123 H123      -83.3046   22.3325  -73.5357 H         1 UNK         0.1144 
    124 H124      -81.6763   20.4494  -73.2069 H         1 UNK         0.0793 
    125 H125      -81.1218   20.6451  -74.8694 H         1 UNK         0.0793 
    126 H126      -82.7771   20.1647  -74.5448 H         1 UNK         0.0793 
    127 H127      -81.7320   23.6856  -72.7271 H         1 UNK         0.2896 
@<TRIPOS>BOND
     1    1    2 1    
     2    1   67 1    
     3    1   68 1    
     4    1   69 1    
     5    2    3 2    
     6    2    4 am   BACKBONE|DICT|INTERRES
     7    4    5 1    
     8    4   70 1    
     9    5    6 1    
    10    5   65 1    
    11    5   71 1    
    12    6    7 1    
    13    6   72 1    
    14    6   73 1    
    15    7    8 1    
    16    8    9 1    
    17    8   74 1    
    18    8   75 1    
    19    9   10 ar   
    20    9   14 ar   
    21   10   11 ar   
    22   10   76 1    
    23   11   12 ar   
    24   11   48 1    
    25   12   13 ar   
    26   12   77 1    
    27   13   14 ar   
    28   13   15 1    
    29   14   78 1    
    30   15   16 1    
    31   15   79 1    
    32   15   80 1    
    33   16   17 1    
    34   17   18 1    
    35   17   81 1    
    36   17   82 1    
    37   18   19 1    
    38   18   22 1    
    39   18   83 1    
    40   19   20 am   BACKBONE|DICT|INTERRES
    41   19   21 2    
    42   20   84 1    
    43   20   85 1    
    44   22   23 am   BACKBONE|DICT|INTERRES
    45   22   86 1    
    46   23   24 2    
    47   23   25 1    
    48   25   26 1    
    49   25   27 1    
    50   25   87 1    
    51   26   88 1    
    52   26   89 1    
    53   26   90 1    
    54   27   28 am   BACKBONE|DICT|INTERRES
    55   27   91 1    
    56   28   29 2    
    57   28   30 1    
    58   30   31 1    
    59   30   32 1    
    60   30   92 1    
    61   31   93 1    
    62   31   94 1    
    63   31   95 1    
    64   32   33 am   BACKBONE|DICT|INTERRES
    65   32   96 1    
    66   33   34 2    
    67   33   35 1    
    68   35   36 1    
    69   35   37 1    
    70   35   97 1    
    71   36   98 1    
    72   36   99 1    
    73   36  100 1    
    74   37   38 am   BACKBONE|DICT|INTERRES
    75   37  101 1    
    76   38   39 2    
    77   38   40 1    
    78   40   41 1    
    79   40   42 1    
    80   40  102 1    
    81   41  103 1    
    82   41  104 1    
    83   41  105 1    
    84   42   43 am   BACKBONE|DICT|INTERRES
    85   42  106 1    
    86   43   44 2    
    87   43   45 1    
    88   45   46 1    
    89   45   49 1    
    90   45  107 1    
    91   46   47 1    
    92   46  108 1    
    93   46  109 1    
    94   47   48 1    
    95   48  110 1    
    96   48  111 1    
    97   49   50 am   BACKBONE|DICT|INTERRES
    98   49  112 1    
    99   50   51 2    
   100   50   52 1    
   101   52   53 1    
   102   52   54 1    
   103   52  113 1    
   104   53  114 1    
   105   53  115 1    
   106   53  116 1    
   107   54   55 am   BACKBONE|DICT|INTERRES
   108   54  117 1    
   109   55   56 2    
   110   55   57 1    
   111   57   58 1    
   112   57   59 1    
   113   57  118 1    
   114   58  119 1    
   115   58  120 1    
   116   58  121 1    
   117   59   60 am   BACKBONE|DICT|INTERRES
   118   59  122 1    
   119   60   61 2    
   120   60   62 1    
   121   62   63 1    
   122   62   64 1    
   123   62  123 1    
   124   63  124 1    
   125   63  125 1    
   126   63  126 1    
   127   64   65 am   BACKBONE|DICT|INTERRES
   128   64  127 1    
   129   65   66 2    
@<TRIPOS>SUBSTRUCTURE
     1 UNK         1 GROUP             0       ****    0 ROOT    
