@<TRIPOS>MOLECULE
3R135
127   129    1
SMALL
USER_CHARGES


@<TRIPOS>ATOM
      1 CA        -84.4386   27.0994  -71.1433 C.3       0 UNK        -0.1998 
      2 C         -83.2111   27.1365  -72.0405 C.2       0 UNK         0.4909 
      3 O         -82.3059   26.3194  -71.8707 O.2       0 UNK        -0.5240 
      4 N         -83.1803   28.0686  -73.0041 N.am      1 UNK        -0.4739 
      5 CA        -82.1110   28.3212  -73.9866 C.3       1 UNK         0.0864 
      6 C6        -80.7283   28.5870  -73.3309 C.3       11 UNK        -0.0881 
      7 S7        -79.7579   29.8620  -74.2033 S.3       11 UNK        -0.2682 
      8 C8        -78.7161   30.5043  -72.8526 C.3       11 UNK         0.0289 
      9 C9        -77.6492   29.4989  -72.4439 C.ar      11 UNK        -0.0687 
     10 C10       -77.9361   28.5135  -71.4938 C.ar      11 UNK        -0.0823 
     11 C11       -76.9791   27.5566  -71.1452 C.ar      11 UNK        -0.0830 
     12 C12       -75.7116   27.6172  -71.7325 C.ar      11 UNK        -0.1021 
     13 C13       -75.4117   28.5958  -72.6844 C.ar      11 UNK        -0.0753 
     14 C14       -76.3812   29.5408  -73.0309 C.ar      11 UNK        -0.0933 
     15 C15       -74.0701   28.5677  -73.3981 C.3       11 UNK         0.0166 
     16 S16       -72.6974   29.0947  -72.3275 S.3       11 UNK        -0.2615 
     17 C17       -72.8715   30.9154  -72.3030 C.3       11 UNK        -0.0865 
     18 CA        -72.8093   31.6175  -73.6950 C.3       10 UNK         0.0862 
     19 C         -72.8381   33.1713  -73.5764 C.2       10 UNK         0.5551 
     20 N         -72.1758   33.9125  -74.4563 N.am      10 UNK        -0.7319 
     21 O         -73.4953   33.7172  -72.6933 O.2       10 UNK        -0.5018 
     22 N         -71.7648   31.0790  -74.5855 N.am      10 UNK        -0.4509 
     23 C         -70.4436   31.0780  -74.3784 C.2       10 UNK         0.4899 
     24 O         -69.8994   31.5853  -73.3962 O.2       10 UNK        -0.4839 
     25 CA        -69.5963   30.3701  -75.4581 C.3       9 UNK         0.0222 
     26 CB        -68.0833   30.5558  -75.2352 C.3       9 UNK        -0.1966 
     27 N         -69.8886   28.9340  -75.5573 N.am      9 UNK        -0.4218 
     28 C         -70.9921   28.3943  -76.0929 C.2       9 UNK         0.5020 
     29 O         -71.9103   29.0640  -76.5766 O.2       9 UNK        -0.5274 
     30 CA        -71.0843   26.8600  -76.0956 C.3       8 UNK         0.0270 
     31 CB        -71.0205   26.2673  -74.6725 C.3       8 UNK        -0.1976 
     32 N         -72.3280   26.4739  -76.7589 N.am      8 UNK        -0.4313 
     33 C         -72.6336   25.2775  -77.2693 C.2       8 UNK         0.5041 
     34 O         -71.8909   24.2964  -77.1897 O.2       8 UNK        -0.5577 
     35 CA        -73.9903   25.1643  -78.0010 C.3       7 UNK         0.0284 
     36 CB        -74.1990   23.7820  -78.6468 C.3       7 UNK        -0.1958 
     37 N         -75.1331   25.4619  -77.1295 N.am      7 UNK        -0.4454 
     38 C         -75.4883   26.6874  -76.7201 C.2       7 UNK         0.5089 
     39 O         -74.9080   27.7112  -77.0830 O.2       7 UNK        -0.5125 
     40 CA        -76.6729   26.8227  -75.7481 C.3       6 UNK         0.0408 
     41 CB        -77.9130   27.3641  -76.4749 C.3       6 UNK        -0.1791 
     42 N         -77.0350   25.6153  -75.0005 N.am      6 UNK        -0.4762 
     43 C         -76.2613   24.9943  -74.0955 C.2       6 UNK         0.5007 
     44 O         -75.0711   25.2497  -73.9178 O.2       6 UNK        -0.5032 
     45 CA        -76.9247   23.8865  -73.2587 C.3       5 UNK         0.0783 
     46 C46       -77.7966   24.4635  -72.1103 C.3       11 UNK        -0.0857 
     47 S47       -76.8026   24.7942  -70.6141 S.3       11 UNK        -0.2512 
     48 C48       -77.3281   26.4744  -70.1274 C.3       11 UNK         0.0225 
     49 N         -77.6873   22.9958  -74.1342 N.am      5 UNK        -0.4615 
     50 C         -77.2701   21.7840  -74.5266 C.2       4 UNK         0.5053 
     51 O         -76.2518   21.2372  -74.1019 O.2       4 UNK        -0.5105 
     52 CA        -78.1178   21.0482  -75.5820 C.3       4 UNK         0.0263 
     53 CB        -79.1023   20.0839  -74.9007 C.3       4 UNK        -0.1981 
     54 N         -78.8603   21.9389  -76.4768 N.am      4 UNK        -0.4224 
     55 C         -78.3122   22.8492  -77.2947 C.2       3 UNK         0.4895 
     56 O         -77.1004   23.0132  -77.4295 O.2       3 UNK        -0.5091 
     57 CA        -79.2819   23.7693  -78.0556 C.3       3 UNK         0.0250 
     58 CB        -79.5979   23.1809  -79.4397 C.3       3 UNK        -0.1996 
     59 N         -80.5393   24.0597  -77.3509 N.am      3 UNK        -0.4254 
     60 C         -80.6527   24.5712  -76.1160 C.2       2 UNK         0.5004 
     61 O         -79.6968   24.7901  -75.3664 O.2       2 UNK        -0.5226 
     62 CA        -82.0813   24.8110  -75.6086 C.3       2 UNK         0.0269 
     63 CB        -82.5875   23.5744  -74.8486 C.3       2 UNK        -0.1926 
     64 N         -82.1463   25.9694  -74.7191 N.am      2 UNK        -0.4687 
     65 C         -82.0299   27.2483  -75.0970 C.2       1 UNK         0.5165 
     66 O         -81.9068   27.5975  -76.2721 O.2       1 UNK        -0.5079 
     67 H67       -84.1463   27.2427  -70.1033 H         1 UNK         0.0900 
     68 H68       -85.1585   27.8753  -71.4032 H         1 UNK         0.0900 
     69 H69       -84.9353   26.1332  -71.2278 H         1 UNK         0.0900 
     70 H70       -83.9801   28.6801  -73.0988 H         1 UNK         0.2959 
     71 H71       -82.4271   29.2393  -74.4854 H         1 UNK         0.1079 
     72 H72       -80.1372   27.6723  -73.2460 H         1 UNK         0.0837 
     73 H73       -80.8759   28.9394  -72.3094 H         1 UNK         0.0837 
     74 H74       -78.2451   31.4308  -73.1846 H         1 UNK         0.0685 
     75 H75       -79.3376   30.7715  -71.9966 H         1 UNK         0.0685 
     76 H76       -78.9151   28.4814  -71.0366 H         1 UNK         0.1434 
     77 H77       -74.9635   26.8788  -71.4783 H         1 UNK         0.1329 
     78 H78       -76.1615   30.2880  -73.7810 H         1 UNK         0.1335 
     79 H79       -74.0938   29.1559  -74.3151 H         1 UNK         0.0680 
     80 H80       -73.8782   27.5463  -73.7223 H         1 UNK         0.0680 
     81 H81       -72.0825   31.3049  -71.6574 H         1 UNK         0.1032 
     82 H82       -73.8109   31.1574  -71.8024 H         1 UNK         0.1032 
     83 H83       -73.7443   31.3892  -74.2053 H         1 UNK         0.0461 
     84 H84       -71.6423   33.4743  -75.1898 H         1 UNK         0.3453 
     85 H85       -72.2061   34.9171  -74.3814 H         1 UNK         0.3453 
     86 H86       -72.0960   30.5849  -75.4096 H         1 UNK         0.2984 
     87 H87       -69.8444   30.8355  -76.4145 H         1 UNK         0.0554 
     88 H88       -67.8220   31.6141  -75.1906 H         1 UNK         0.0847 
     89 H89       -67.5043   30.1170  -76.0480 H         1 UNK         0.0847 
     90 H90       -67.7521   30.0994  -74.3015 H         1 UNK         0.0847 
     91 H91       -69.1986   28.3133  -75.1592 H         1 UNK         0.3141 
     92 H92       -70.2466   26.4799  -76.6837 H         1 UNK         0.0743 
     93 H93       -71.8327   26.6311  -74.0459 H         1 UNK         0.0784 
     94 H94       -71.0824   25.1793  -74.6906 H         1 UNK         0.0784 
     95 H95       -70.0854   26.5214  -74.1730 H         1 UNK         0.0784 
     96 H96       -72.9898   27.2399  -76.8838 H         1 UNK         0.3213 
     97 H97       -73.9744   25.8995  -78.8086 H         1 UNK         0.0855 
     98 H98       -74.2550   22.9919  -77.8968 H         1 UNK         0.0814 
     99 H99       -73.3794   23.5356  -79.3229 H         1 UNK         0.0814 
    100 H100      -75.1183   23.7530  -79.2320 H         1 UNK         0.0814 
    101 H101      -75.6719   24.6700  -76.7999 H         1 UNK         0.3105 
    102 H102      -76.3828   27.5685  -75.0107 H         1 UNK         0.0547 
    103 H103      -78.2387   26.6994  -77.2724 H         1 UNK         0.0837 
    104 H104      -77.7069   28.3359  -76.9251 H         1 UNK         0.0837 
    105 H105      -78.7497   27.4981  -75.7895 H         1 UNK         0.0837 
    106 H106      -78.0043   25.3159  -75.0960 H         1 UNK         0.3020 
    107 H107      -76.1105   23.3170  -72.8040 H         1 UNK         0.1245 
    108 H108      -78.5594   23.7392  -71.8203 H         1 UNK         0.0781 
    109 H109      -78.3441   25.3561  -72.4212 H         1 UNK         0.0781 
    110 H110      -76.8514   26.7266  -69.1794 H         1 UNK         0.0836 
    111 H111      -78.4021   26.4555  -69.9350 H         1 UNK         0.0836 
    112 H112      -78.5186   23.3927  -74.5599 H         1 UNK         0.3022 
    113 H113      -77.4323   20.4623  -76.1980 H         1 UNK         0.0747 
    114 H114      -79.6458   19.4867  -75.6331 H         1 UNK         0.0793 
    115 H115      -78.5764   19.3882  -74.2451 H         1 UNK         0.0793 
    116 H116      -79.8329   20.6171  -74.2908 H         1 UNK         0.0793 
    117 H117      -79.8672   21.8849  -76.4373 H         1 UNK         0.3047 
    118 H118      -78.7666   24.7178  -78.2071 H         1 UNK         0.0822 
    119 H119      -80.1874   23.8730  -80.0414 H         1 UNK         0.0807 
    120 H120      -80.1511   22.2438  -79.3646 H         1 UNK         0.0807 
    121 H121      -78.6813   22.9744  -79.9947 H         1 UNK         0.0807 
    122 H122      -81.3853   23.8900  -77.8765 H         1 UNK         0.2946 
    123 H123      -82.7361   24.9987  -76.4626 H         1 UNK         0.1144 
    124 H124      -82.5860   22.6905  -75.4879 H         1 UNK         0.0793 
    125 H125      -83.6098   23.7163  -74.4975 H         1 UNK         0.0793 
    126 H126      -81.9641   23.3520  -73.9811 H         1 UNK         0.0793 
    127 H127      -82.1959   25.7883  -73.7207 H         1 UNK         0.2896 
@<TRIPOS>BOND
     1    1    2 1    
     2    1   67 1    
     3    1   68 1    
     4    1   69 1    
     5    2    3 2    
     6    2    4 am   BACKBONE|DICT|INTERRES
     7    4    5 1    
     8    4   70 1    
     9    5    6 1    
    10    5   65 1    
    11    5   71 1    
    12    6    7 1    
    13    6   72 1    
    14    6   73 1    
    15    7    8 1    
    16    8    9 1    
    17    8   74 1    
    18    8   75 1    
    19    9   10 ar   
    20    9   14 ar   
    21   10   11 ar   
    22   10   76 1    
    23   11   12 ar   
    24   11   48 1    
    25   12   13 ar   
    26   12   77 1    
    27   13   14 ar   
    28   13   15 1    
    29   14   78 1    
    30   15   16 1    
    31   15   79 1    
    32   15   80 1    
    33   16   17 1    
    34   17   18 1    
    35   17   81 1    
    36   17   82 1    
    37   18   19 1    
    38   18   22 1    
    39   18   83 1    
    40   19   20 am   BACKBONE|DICT|INTERRES
    41   19   21 2    
    42   20   84 1    
    43   20   85 1    
    44   22   23 am   BACKBONE|DICT|INTERRES
    45   22   86 1    
    46   23   24 2    
    47   23   25 1    
    48   25   26 1    
    49   25   27 1    
    50   25   87 1    
    51   26   88 1    
    52   26   89 1    
    53   26   90 1    
    54   27   28 am   BACKBONE|DICT|INTERRES
    55   27   91 1    
    56   28   29 2    
    57   28   30 1    
    58   30   31 1    
    59   30   32 1    
    60   30   92 1    
    61   31   93 1    
    62   31   94 1    
    63   31   95 1    
    64   32   33 am   BACKBONE|DICT|INTERRES
    65   32   96 1    
    66   33   34 2    
    67   33   35 1    
    68   35   36 1    
    69   35   37 1    
    70   35   97 1    
    71   36   98 1    
    72   36   99 1    
    73   36  100 1    
    74   37   38 am   BACKBONE|DICT|INTERRES
    75   37  101 1    
    76   38   39 2    
    77   38   40 1    
    78   40   41 1    
    79   40   42 1    
    80   40  102 1    
    81   41  103 1    
    82   41  104 1    
    83   41  105 1    
    84   42   43 am   BACKBONE|DICT|INTERRES
    85   42  106 1    
    86   43   44 2    
    87   43   45 1    
    88   45   46 1    
    89   45   49 1    
    90   45  107 1    
    91   46   47 1    
    92   46  108 1    
    93   46  109 1    
    94   47   48 1    
    95   48  110 1    
    96   48  111 1    
    97   49   50 am   BACKBONE|DICT|INTERRES
    98   49  112 1    
    99   50   51 2    
   100   50   52 1    
   101   52   53 1    
   102   52   54 1    
   103   52  113 1    
   104   53  114 1    
   105   53  115 1    
   106   53  116 1    
   107   54   55 am   BACKBONE|DICT|INTERRES
   108   54  117 1    
   109   55   56 2    
   110   55   57 1    
   111   57   58 1    
   112   57   59 1    
   113   57  118 1    
   114   58  119 1    
   115   58  120 1    
   116   58  121 1    
   117   59   60 am   BACKBONE|DICT|INTERRES
   118   59  122 1    
   119   60   61 2    
   120   60   62 1    
   121   62   63 1    
   122   62   64 1    
   123   62  123 1    
   124   63  124 1    
   125   63  125 1    
   126   63  126 1    
   127   64   65 am   BACKBONE|DICT|INTERRES
   128   64  127 1    
   129   65   66 2    
@<TRIPOS>SUBSTRUCTURE
     1 UNK         1 GROUP             0       ****    0 ROOT    
