@<TRIPOS>MOLECULE
3R135
127   129    1
SMALL
USER_CHARGES


@<TRIPOS>ATOM
      1 CA        -84.5144   30.8430  -74.9244 C.3       0 UNK        -0.1998 
      2 C         -83.5529   29.6893  -74.6834 C.2       0 UNK         0.4909 
      3 O         -83.9020   28.7443  -73.9754 O.2       0 UNK        -0.5240 
      4 N         -82.3552   29.7545  -75.2824 N.am      1 UNK        -0.4739 
      5 CA        -81.2290   28.8066  -75.1957 C.3       1 UNK         0.0864 
      6 C6        -80.6840   28.5968  -73.7561 C.3       11 UNK        -0.0881 
      7 S7        -79.9374   30.1162  -73.0805 S.3       11 UNK        -0.2682 
      8 C8        -78.1924   29.8767  -73.5415 C.3       11 UNK         0.0289 
      9 C9        -77.4162   29.1026  -72.4841 C.ar      11 UNK        -0.0687 
     10 C10       -77.3016   27.7093  -72.5525 C.ar      11 UNK        -0.0823 
     11 C11       -76.6077   27.0044  -71.5625 C.ar      11 UNK        -0.0830 
     12 C12       -75.9989   27.7076  -70.5190 C.ar      11 UNK        -0.1021 
     13 C13       -76.0899   29.1005  -70.4502 C.ar      11 UNK        -0.0753 
     14 C14       -76.8055   29.7914  -71.4319 C.ar      11 UNK        -0.0933 
     15 C15       -75.4477   29.8477  -69.2908 C.3       11 UNK         0.0166 
     16 S16       -73.6803   30.1742  -69.5809 S.3       11 UNK        -0.2615 
     17 C17       -73.7301   31.6213  -70.6999 C.3       11 UNK        -0.0865 
     18 CA        -73.0177   31.3940  -72.0596 C.3       10 UNK         0.0862 
     19 C         -71.4657   31.3388  -71.9136 C.2       10 UNK         0.5551 
     20 N         -70.7830   30.2775  -72.3279 N.am      10 UNK        -0.7319 
     21 O         -70.8657   32.2929  -71.4240 O.2       10 UNK        -0.5018 
     22 N         -73.6203   30.2790  -72.8039 N.am      10 UNK        -0.4509 
     23 C         -73.5144   30.0982  -74.1242 C.2       10 UNK         0.4899 
     24 O         -72.9823   30.8990  -74.8956 O.2       10 UNK        -0.4839 
     25 CA        -74.1039   28.7903  -74.6773 C.3       9 UNK         0.0222 
     26 CB        -75.3006   29.0907  -75.5918 C.3       9 UNK        -0.1966 
     27 N         -73.1199   27.9982  -75.4212 N.am      9 UNK        -0.4218 
     28 C         -71.9195   27.6049  -74.9649 C.2       9 UNK         0.5020 
     29 O         -71.5243   27.8291  -73.8191 O.2       9 UNK        -0.5274 
     30 CA        -71.0056   26.8108  -75.9190 C.3       8 UNK         0.0270 
     31 CB        -70.4937   25.5225  -75.2489 C.3       8 UNK        -0.1976 
     32 N         -71.6561   26.4666  -77.1878 N.am      8 UNK        -0.4313 
     33 C         -71.6378   27.2327  -78.2885 C.2       8 UNK         0.5041 
     34 O         -71.0469   28.3111  -78.3534 O.2       8 UNK        -0.5577 
     35 CA        -72.4053   26.7333  -79.5294 C.3       7 UNK         0.0284 
     36 CB        -71.4305   26.1309  -80.5546 C.3       7 UNK        -0.1958 
     37 N         -73.4562   25.7541  -79.2374 N.am      7 UNK        -0.4454 
     38 C         -74.5761   26.0097  -78.5477 C.2       7 UNK         0.5089 
     39 O         -74.8516   27.1189  -78.0917 O.2       7 UNK        -0.5125 
     40 CA        -75.5271   24.8261  -78.2687 C.3       6 UNK         0.0408 
     41 CB        -75.2413   23.5707  -79.1230 C.3       6 UNK        -0.1791 
     42 N         -75.5501   24.4685  -76.8449 N.am      6 UNK        -0.4762 
     43 C         -74.4867   24.2005  -76.0680 C.2       6 UNK         0.5007 
     44 O         -73.3225   24.2114  -76.4702 O.2       6 UNK        -0.5032 
     45 CA        -74.7654   23.8585  -74.5911 C.3       5 UNK         0.0783 
     46 C46       -74.7793   25.1556  -73.7473 C.3       11 UNK        -0.0857 
     47 S47       -74.9012   24.8357  -71.9594 S.3       11 UNK        -0.2512 
     48 C48       -76.5587   25.4816  -71.5797 C.3       11 UNK         0.0225 
     49 N         -75.9812   23.0513  -74.4215 N.am      5 UNK        -0.4615 
     50 C         -76.1443   21.8131  -74.9090 C.2       4 UNK         0.5053 
     51 O         -75.2658   21.2075  -75.5241 O.2       4 UNK        -0.5105 
     52 CA        -77.4934   21.1057  -74.6723 C.3       4 UNK         0.0263 
     53 CB        -77.3085   19.9112  -73.7203 C.3       4 UNK        -0.1981 
     54 N         -78.5869   21.9424  -74.1632 N.am      4 UNK        -0.4224 
     55 C         -79.1690   22.9617  -74.8080 C.2       3 UNK         0.4895 
     56 O         -78.7574   23.4368  -75.8697 O.2       3 UNK        -0.5091 
     57 CA        -80.4152   23.5469  -74.1318 C.3       3 UNK         0.0250 
     58 CB        -80.0452   24.4162  -72.9165 C.3       3 UNK        -0.1996 
     59 N         -81.1612   24.3587  -75.0872 N.am      3 UNK        -0.4254 
     60 C         -82.4901   24.5015  -75.1217 C.2       2 UNK         0.5004 
     61 O         -83.2620   23.9163  -74.3592 O.2       2 UNK        -0.5226 
     62 CA        -83.0338   25.5193  -76.1424 C.3       2 UNK         0.0269 
     63 CB        -84.5622   25.4356  -76.3115 C.3       2 UNK        -0.1926 
     64 N         -82.6799   26.8765  -75.7238 N.am      2 UNK        -0.4687 
     65 C         -81.4799   27.4465  -75.8795 C.2       1 UNK         0.5165 
     66 O         -80.5672   26.9220  -76.5197 O.2       1 UNK        -0.5079 
     67 H67       -84.7810   31.3115  -73.9774 H         1 UNK         0.0900 
     68 H68       -85.4278   30.4782  -75.3934 H         1 UNK         0.0900 
     69 H69       -84.0826   31.6071  -75.5705 H         1 UNK         0.0900 
     70 H70       -82.1678   30.5563  -75.8688 H         1 UNK         0.2959 
     71 H71       -80.4301   29.2669  -75.7800 H         1 UNK         0.1079 
     72 H72       -79.9391   27.8013  -73.7324 H         1 UNK         0.0837 
     73 H73       -81.4757   28.2693  -73.0809 H         1 UNK         0.0837 
     74 H74       -78.1375   29.3698  -74.5057 H         1 UNK         0.0685 
     75 H75       -77.7353   30.8567  -73.6870 H         1 UNK         0.0685 
     76 H76       -77.7673   27.1720  -73.3660 H         1 UNK         0.1434 
     77 H77       -75.4617   27.1668  -69.7515 H         1 UNK         0.1329 
     78 H78       -76.8976   30.8671  -71.3740 H         1 UNK         0.1335 
     79 H79       -75.9716   30.7843  -69.0936 H         1 UNK         0.0680 
     80 H80       -75.5450   29.2536  -68.3808 H         1 UNK         0.0680 
     81 H81       -73.2921   32.4738  -70.1770 H         1 UNK         0.1032 
     82 H82       -74.7658   31.9075  -70.8830 H         1 UNK         0.1032 
     83 H83       -73.2048   32.2928  -72.6507 H         1 UNK         0.0461 
     84 H84       -69.7813   30.2697  -72.2248 H         1 UNK         0.3453 
     85 H85       -71.2479   29.4834  -72.7562 H         1 UNK         0.3453 
     86 H86       -74.0563   29.5649  -72.2369 H         1 UNK         0.2984 
     87 H87       -74.4555   28.1857  -73.8389 H         1 UNK         0.0554 
     88 H88       -75.8970   28.1966  -75.7742 H         1 UNK         0.0847 
     89 H89       -75.9541   29.8401  -75.1494 H         1 UNK         0.0847 
     90 H90       -74.9803   29.4854  -76.5569 H         1 UNK         0.0847 
     91 H91       -73.3606   27.7762  -76.3784 H         1 UNK         0.3141 
     92 H92       -70.1379   27.4419  -76.1215 H         1 UNK         0.0743 
     93 H93       -69.8893   25.7533  -74.3707 H         1 UNK         0.0784 
     94 H94       -71.3120   24.8836  -74.9166 H         1 UNK         0.0784 
     95 H95       -69.8671   24.9425  -75.9266 H         1 UNK         0.0784 
     96 H96       -72.1979   25.6046  -77.1895 H         1 UNK         0.3213 
     97 H97       -72.8818   27.6051  -79.9834 H         1 UNK         0.0855 
     98 H98       -70.6521   26.8476  -80.8209 H         1 UNK         0.0814 
     99 H99       -71.9423   25.8558  -81.4770 H         1 UNK         0.0814 
    100 H100      -70.9337   25.2412  -80.1654 H         1 UNK         0.0814 
    101 H101      -73.2923   24.8062  -79.5442 H         1 UNK         0.3105 
    102 H102      -76.5302   25.1749  -78.5185 H         1 UNK         0.0547 
    103 H103      -75.2513   23.8049  -80.1885 H         1 UNK         0.0837 
    104 H104      -74.2783   23.1166  -78.8867 H         1 UNK         0.0837 
    105 H105      -76.0053   22.8105  -78.9594 H         1 UNK         0.0837 
    106 H106      -76.4686   24.4221  -76.4219 H         1 UNK         0.3020 
    107 H107      -73.9254   23.2470  -74.2527 H         1 UNK         0.1245 
    108 H108      -73.8511   25.7076  -73.8961 H         1 UNK         0.0781 
    109 H109      -75.5824   25.8214  -74.0678 H         1 UNK         0.0781 
    110 H110      -76.8637   25.1070  -70.6015 H         1 UNK         0.0836 
    111 H111      -77.2725   25.0747  -72.2942 H         1 UNK         0.0836 
    112 H112      -76.7426   23.4717  -73.9131 H         1 UNK         0.3022 
    113 H113      -77.8111   20.7177  -75.6425 H         1 UNK         0.0747 
    114 H114      -78.2256   19.3290  -73.6281 H         1 UNK         0.0793 
    115 H115      -76.5358   19.2325  -74.0848 H         1 UNK         0.0793 
    116 H116      -77.0119   20.2346  -72.7216 H         1 UNK         0.0793 
    117 H117      -78.9866   21.6486  -73.2831 H         1 UNK         0.3047 
    118 H118      -81.0357   22.7100  -73.8031 H         1 UNK         0.0822 
    119 H119      -80.9382   24.7810  -72.4084 H         1 UNK         0.0807 
    120 H120      -79.4575   25.2851  -73.2121 H         1 UNK         0.0807 
    121 H121      -79.4677   23.8540  -72.1820 H         1 UNK         0.0807 
    122 H122      -80.5934   24.8596  -75.7635 H         1 UNK         0.2946 
    123 H123      -82.5740   25.3027  -77.1097 H         1 UNK         0.1144 
    124 H124      -84.9136   26.1280  -77.0767 H         1 UNK         0.0793 
    125 H125      -85.0861   25.6695  -75.3837 H         1 UNK         0.0793 
    126 H126      -84.8670   24.4336  -76.6166 H         1 UNK         0.0793 
    127 H127      -83.3437   27.3655  -75.1279 H         1 UNK         0.2896 
@<TRIPOS>BOND
     1    1    2 1    
     2    1   67 1    
     3    1   68 1    
     4    1   69 1    
     5    2    3 2    
     6    2    4 am   BACKBONE|DICT|INTERRES
     7    4    5 1    
     8    4   70 1    
     9    5    6 1    
    10    5   65 1    
    11    5   71 1    
    12    6    7 1    
    13    6   72 1    
    14    6   73 1    
    15    7    8 1    
    16    8    9 1    
    17    8   74 1    
    18    8   75 1    
    19    9   10 ar   
    20    9   14 ar   
    21   10   11 ar   
    22   10   76 1    
    23   11   12 ar   
    24   11   48 1    
    25   12   13 ar   
    26   12   77 1    
    27   13   14 ar   
    28   13   15 1    
    29   14   78 1    
    30   15   16 1    
    31   15   79 1    
    32   15   80 1    
    33   16   17 1    
    34   17   18 1    
    35   17   81 1    
    36   17   82 1    
    37   18   19 1    
    38   18   22 1    
    39   18   83 1    
    40   19   20 am   BACKBONE|DICT|INTERRES
    41   19   21 2    
    42   20   84 1    
    43   20   85 1    
    44   22   23 am   BACKBONE|DICT|INTERRES
    45   22   86 1    
    46   23   24 2    
    47   23   25 1    
    48   25   26 1    
    49   25   27 1    
    50   25   87 1    
    51   26   88 1    
    52   26   89 1    
    53   26   90 1    
    54   27   28 am   BACKBONE|DICT|INTERRES
    55   27   91 1    
    56   28   29 2    
    57   28   30 1    
    58   30   31 1    
    59   30   32 1    
    60   30   92 1    
    61   31   93 1    
    62   31   94 1    
    63   31   95 1    
    64   32   33 am   BACKBONE|DICT|INTERRES
    65   32   96 1    
    66   33   34 2    
    67   33   35 1    
    68   35   36 1    
    69   35   37 1    
    70   35   97 1    
    71   36   98 1    
    72   36   99 1    
    73   36  100 1    
    74   37   38 am   BACKBONE|DICT|INTERRES
    75   37  101 1    
    76   38   39 2    
    77   38   40 1    
    78   40   41 1    
    79   40   42 1    
    80   40  102 1    
    81   41  103 1    
    82   41  104 1    
    83   41  105 1    
    84   42   43 am   BACKBONE|DICT|INTERRES
    85   42  106 1    
    86   43   44 2    
    87   43   45 1    
    88   45   46 1    
    89   45   49 1    
    90   45  107 1    
    91   46   47 1    
    92   46  108 1    
    93   46  109 1    
    94   47   48 1    
    95   48  110 1    
    96   48  111 1    
    97   49   50 am   BACKBONE|DICT|INTERRES
    98   49  112 1    
    99   50   51 2    
   100   50   52 1    
   101   52   53 1    
   102   52   54 1    
   103   52  113 1    
   104   53  114 1    
   105   53  115 1    
   106   53  116 1    
   107   54   55 am   BACKBONE|DICT|INTERRES
   108   54  117 1    
   109   55   56 2    
   110   55   57 1    
   111   57   58 1    
   112   57   59 1    
   113   57  118 1    
   114   58  119 1    
   115   58  120 1    
   116   58  121 1    
   117   59   60 am   BACKBONE|DICT|INTERRES
   118   59  122 1    
   119   60   61 2    
   120   60   62 1    
   121   62   63 1    
   122   62   64 1    
   123   62  123 1    
   124   63  124 1    
   125   63  125 1    
   126   63  126 1    
   127   64   65 am   BACKBONE|DICT|INTERRES
   128   64  127 1    
   129   65   66 2    
@<TRIPOS>SUBSTRUCTURE
     1 UNK         1 GROUP             0       ****    0 ROOT    
