@<TRIPOS>MOLECULE
3R135
127   129    1
SMALL
USER_CHARGES


@<TRIPOS>ATOM
      1 CA        -81.8468   26.0331  -72.7246 C.3       0 UNK        -0.1998 
      2 C         -83.0398   26.9639  -72.9214 C.2       0 UNK         0.4909 
      3 O         -83.9765   26.8958  -72.1286 O.2       0 UNK        -0.5240 
      4 N         -83.0872   27.8373  -73.9395 N.am      1 UNK        -0.4739 
      5 CA        -82.1141   28.1076  -75.0145 C.3       1 UNK         0.0864 
      6 C6        -80.6983   28.5382  -74.5359 C.3       11 UNK        -0.0881 
      7 S7        -80.7188   29.8813  -73.3032 S.3       11 UNK        -0.2682 
      8 C8        -78.9537   30.3580  -73.2790 C.3       11 UNK         0.0289 
      9 C9        -77.9834   29.3615  -72.6349 C.ar      11 UNK        -0.0687 
     10 C10       -78.4013   28.2098  -71.9528 C.ar      11 UNK        -0.0823 
     11 C11       -77.4722   27.3382  -71.3767 C.ar      11 UNK        -0.0830 
     12 C12       -76.1114   27.6427  -71.4469 C.ar      11 UNK        -0.1021 
     13 C13       -75.6753   28.7857  -72.1200 C.ar      11 UNK        -0.0753 
     14 C14       -76.6138   29.6322  -72.7178 C.ar      11 UNK        -0.0933 
     15 C15       -74.1897   29.0925  -72.2193 C.3       11 UNK         0.0166 
     16 S16       -73.7631   30.6208  -71.3240 S.3       11 UNK        -0.2615 
     17 C17       -71.9387   30.5928  -71.3836 C.3       11 UNK        -0.0865 
     18 CA        -71.3526   31.3831  -72.5833 C.3       10 UNK         0.0862 
     19 C         -69.8074   31.5239  -72.4398 C.2       10 UNK         0.5551 
     20 N         -68.9933   30.8773  -73.2671 N.am      10 UNK        -0.7319 
     21 O         -69.3406   32.2388  -71.5565 O.2       10 UNK        -0.5018 
     22 N         -71.7889   30.8015  -73.8592 N.am      10 UNK        -0.4509 
     23 C         -71.6959   31.3792  -75.0619 C.2       10 UNK         0.4899 
     24 O         -71.3521   32.5496  -75.2332 O.2       10 UNK        -0.4839 
     25 CA        -72.0400   30.4889  -76.2770 C.3       9 UNK         0.0222 
     26 CB        -71.2256   30.8727  -77.5300 C.3       9 UNK        -0.1966 
     27 N         -71.9303   29.0426  -76.0197 N.am      9 UNK        -0.4218 
     28 C         -70.8419   28.3691  -75.6026 C.2       9 UNK         0.5020 
     29 O         -69.7625   28.9066  -75.3500 O.2       9 UNK        -0.5274 
     30 CA        -70.9792   26.8516  -75.3735 C.3       8 UNK         0.0270 
     31 CB        -71.0886   26.5512  -73.8693 C.3       8 UNK        -0.1976 
     32 N         -72.1257   26.2598  -76.0651 N.am      8 UNK        -0.4313 
     33 C         -72.2110   26.1059  -77.3951 C.2       8 UNK         0.5041 
     34 O         -71.2814   26.3426  -78.1676 O.2       8 UNK        -0.5577 
     35 CA        -73.5597   25.6393  -77.9743 C.3       7 UNK         0.0284 
     36 CB        -73.4726   24.1722  -78.4240 C.3       7 UNK        -0.1958 
     37 N         -74.6959   25.8061  -77.0604 N.am      7 UNK        -0.4454 
     38 C         -75.1607   26.9857  -76.6166 C.2       7 UNK         0.5089 
     39 O         -74.6582   28.0699  -76.9150 O.2       7 UNK        -0.5125 
     40 CA        -76.3541   26.9571  -75.6449 C.3       6 UNK         0.0408 
     41 CB        -77.6646   27.1492  -76.4188 C.3       6 UNK        -0.1791 
     42 N         -76.4488   25.7300  -74.8520 N.am      6 UNK        -0.4762 
     43 C         -75.5154   25.2808  -73.9978 C.2       6 UNK         0.5007 
     44 O         -74.4506   25.8623  -73.7819 O.2       6 UNK        -0.5032 
     45 CA        -75.7787   23.9125  -73.3306 C.3       5 UNK         0.0783 
     46 C46       -76.3494   24.0578  -71.8966 C.3       11 UNK        -0.0857 
     47 S47       -78.0757   24.6635  -71.8170 S.3       11 UNK        -0.2512 
     48 C48       -77.9444   26.0754  -70.6705 C.3       11 UNK         0.0225 
     49 N         -76.5888   23.0083  -74.1578 N.am      5 UNK        -0.4615 
     50 C         -76.2716   22.5980  -75.3942 C.2       4 UNK         0.5053 
     51 O         -75.2188   22.8982  -75.9558 O.2       4 UNK        -0.5105 
     52 CA        -77.2961   21.7383  -76.1570 C.3       4 UNK         0.0263 
     53 CB        -76.8329   20.2730  -76.1994 C.3       4 UNK        -0.1981 
     54 N         -78.6717   21.7907  -75.6476 N.am      4 UNK        -0.4224 
     55 C         -79.4426   22.8845  -75.5722 C.2       3 UNK         0.4895 
     56 O         -79.0498   24.0265  -75.8240 O.2       3 UNK        -0.5091 
     57 CA        -80.8795   22.6475  -75.0770 C.3       3 UNK         0.0250 
     58 CB        -80.9126   22.5744  -73.5418 C.3       3 UNK        -0.1996 
     59 N         -81.8036   23.6885  -75.5316 N.am      3 UNK        -0.4254 
     60 C         -82.2347   23.8336  -76.7924 C.2       2 UNK         0.5004 
     61 O         -81.9356   23.0684  -77.7104 O.2       2 UNK        -0.5226 
     62 CA        -83.1854   25.0114  -77.0792 C.3       2 UNK         0.0269 
     63 CB        -84.6439   24.5252  -77.1109 C.3       2 UNK        -0.1926 
     64 N         -83.0716   26.1149  -76.1179 N.am      2 UNK        -0.4687 
     65 C         -82.0625   26.9988  -76.0924 C.2       1 UNK         0.5165 
     66 O         -81.1262   26.9695  -76.8906 O.2       1 UNK        -0.5079 
     67 H67       -81.2993   25.8251  -73.6397 H         1 UNK         0.0900 
     68 H68       -81.1574   26.4614  -71.9996 H         1 UNK         0.0900 
     69 H69       -82.1895   25.0797  -72.3240 H         1 UNK         0.0900 
     70 H70       -83.9104   28.4217  -73.9925 H         1 UNK         0.2959 
     71 H71       -82.5279   28.9679  -75.5435 H         1 UNK         0.1079 
     72 H72       -80.1175   28.8935  -75.3893 H         1 UNK         0.0837 
     73 H73       -80.1409   27.6954  -74.1306 H         1 UNK         0.0837 
     74 H74       -78.8730   31.3032  -72.7405 H         1 UNK         0.0685 
     75 H75       -78.6341   30.5613  -74.3022 H         1 UNK         0.0685 
     76 H76       -79.4509   27.9799  -71.8614 H         1 UNK         0.1434 
     77 H77       -75.3875   26.9816  -70.9919 H         1 UNK         0.1329 
     78 H78       -76.2723   30.5166  -73.2387 H         1 UNK         0.1335 
     79 H79       -73.6014   28.2633  -71.8230 H         1 UNK         0.0680 
     80 H80       -73.9241   29.1883  -73.2721 H         1 UNK         0.0680 
     81 H81       -71.5825   29.5609  -71.3865 H         1 UNK         0.1032 
     82 H82       -71.5876   31.0228  -70.4432 H         1 UNK         0.1032 
     83 H83       -71.7525   32.3981  -72.5400 H         1 UNK         0.0461 
     84 H84       -67.9976   30.9846  -73.1588 H         1 UNK         0.3453 
     85 H85       -69.3564   30.2732  -73.9981 H         1 UNK         0.3453 
     86 H86       -72.0691   29.8349  -73.8281 H         1 UNK         0.2984 
     87 H87       -73.0923   30.6743  -76.4969 H         1 UNK         0.0554 
     88 H88       -71.4098   31.9083  -77.8180 H         1 UNK         0.0847 
     89 H89       -71.4935   30.2492  -78.3830 H         1 UNK         0.0847 
     90 H90       -70.1532   30.7678  -77.3618 H         1 UNK         0.0847 
     91 H91       -72.7771   28.5147  -76.2099 H         1 UNK         0.3141 
     92 H92       -70.0701   26.3799  -75.7524 H         1 UNK         0.0743 
     93 H93       -70.2246   26.9400  -73.3284 H         1 UNK         0.0784 
     94 H94       -71.9785   27.0027  -73.4297 H         1 UNK         0.0784 
     95 H95       -71.1312   25.4783  -73.6807 H         1 UNK         0.0784 
     96 H96       -72.9337   26.0328  -75.4967 H         1 UNK         0.3213 
     97 H97       -73.7589   26.2533  -78.8552 H         1 UNK         0.0855 
     98 H98       -73.2194   23.5110  -77.5946 H         1 UNK         0.0814 
     99 H99       -72.7023   24.0441  -79.1857 H         1 UNK         0.0814 
    100 H100      -74.4134   23.8281  -78.8541 H         1 UNK         0.0814 
    101 H101      -75.1287   24.9554  -76.7184 H         1 UNK         0.3105 
    102 H102      -76.2375   27.7887  -74.9482 H         1 UNK         0.0547 
    103 H103      -77.8082   26.3728  -77.1716 H         1 UNK         0.0837 
    104 H104      -77.6826   28.1121  -76.9306 H         1 UNK         0.0837 
    105 H105      -78.5231   27.1160  -75.7516 H         1 UNK         0.0837 
    106 H106      -77.2840   25.1701  -74.9836 H         1 UNK         0.3020 
    107 H107      -74.7970   23.4418  -73.2392 H         1 UNK         0.1245 
    108 H108      -75.6986   24.6935  -71.2953 H         1 UNK         0.0781 
    109 H109      -76.3267   23.0848  -71.4037 H         1 UNK         0.0781 
    110 H110      -77.2800   25.8247  -69.8421 H         1 UNK         0.0836 
    111 H111      -78.9240   26.2506  -70.2235 H         1 UNK         0.0836 
    112 H112      -77.4839   22.7417  -73.7756 H         1 UNK         0.3022 
    113 H113      -77.3192   22.1168  -77.1811 H         1 UNK         0.0747 
    114 H114      -77.4821   19.6680  -76.8328 H         1 UNK         0.0793 
    115 H115      -75.8237   20.1928  -76.6066 H         1 UNK         0.0793 
    116 H116      -76.8188   19.8254  -75.2048 H         1 UNK         0.0793 
    117 H117      -79.0780   20.9031  -75.3876 H         1 UNK         0.3047 
    118 H118      -81.2300   21.6934  -75.4771 H         1 UNK         0.0822 
    119 H119      -81.9269   22.4291  -73.1696 H         1 UNK         0.0807 
    120 H120      -80.5115   23.4791  -73.0864 H         1 UNK         0.0807 
    121 H121      -80.3144   21.7393  -73.1752 H         1 UNK         0.0807 
    122 H122      -82.0917   24.3737  -74.8525 H         1 UNK         0.2946 
    123 H123      -82.9312   25.3919  -78.0715 H         1 UNK         0.1144 
    124 H124      -85.3241   25.3281  -77.3961 H         1 UNK         0.0793 
    125 H125      -84.9638   24.1408  -76.1416 H         1 UNK         0.0793 
    126 H126      -84.7721   23.7220  -77.8381 H         1 UNK         0.0793 
    127 H127      -83.8198   26.2214  -75.4471 H         1 UNK         0.2896 
@<TRIPOS>BOND
     1    1    2 1    
     2    1   67 1    
     3    1   68 1    
     4    1   69 1    
     5    2    3 2    
     6    2    4 am   BACKBONE|DICT|INTERRES
     7    4    5 1    
     8    4   70 1    
     9    5    6 1    
    10    5   65 1    
    11    5   71 1    
    12    6    7 1    
    13    6   72 1    
    14    6   73 1    
    15    7    8 1    
    16    8    9 1    
    17    8   74 1    
    18    8   75 1    
    19    9   10 ar   
    20    9   14 ar   
    21   10   11 ar   
    22   10   76 1    
    23   11   12 ar   
    24   11   48 1    
    25   12   13 ar   
    26   12   77 1    
    27   13   14 ar   
    28   13   15 1    
    29   14   78 1    
    30   15   16 1    
    31   15   79 1    
    32   15   80 1    
    33   16   17 1    
    34   17   18 1    
    35   17   81 1    
    36   17   82 1    
    37   18   19 1    
    38   18   22 1    
    39   18   83 1    
    40   19   20 am   BACKBONE|DICT|INTERRES
    41   19   21 2    
    42   20   84 1    
    43   20   85 1    
    44   22   23 am   BACKBONE|DICT|INTERRES
    45   22   86 1    
    46   23   24 2    
    47   23   25 1    
    48   25   26 1    
    49   25   27 1    
    50   25   87 1    
    51   26   88 1    
    52   26   89 1    
    53   26   90 1    
    54   27   28 am   BACKBONE|DICT|INTERRES
    55   27   91 1    
    56   28   29 2    
    57   28   30 1    
    58   30   31 1    
    59   30   32 1    
    60   30   92 1    
    61   31   93 1    
    62   31   94 1    
    63   31   95 1    
    64   32   33 am   BACKBONE|DICT|INTERRES
    65   32   96 1    
    66   33   34 2    
    67   33   35 1    
    68   35   36 1    
    69   35   37 1    
    70   35   97 1    
    71   36   98 1    
    72   36   99 1    
    73   36  100 1    
    74   37   38 am   BACKBONE|DICT|INTERRES
    75   37  101 1    
    76   38   39 2    
    77   38   40 1    
    78   40   41 1    
    79   40   42 1    
    80   40  102 1    
    81   41  103 1    
    82   41  104 1    
    83   41  105 1    
    84   42   43 am   BACKBONE|DICT|INTERRES
    85   42  106 1    
    86   43   44 2    
    87   43   45 1    
    88   45   46 1    
    89   45   49 1    
    90   45  107 1    
    91   46   47 1    
    92   46  108 1    
    93   46  109 1    
    94   47   48 1    
    95   48  110 1    
    96   48  111 1    
    97   49   50 am   BACKBONE|DICT|INTERRES
    98   49  112 1    
    99   50   51 2    
   100   50   52 1    
   101   52   53 1    
   102   52   54 1    
   103   52  113 1    
   104   53  114 1    
   105   53  115 1    
   106   53  116 1    
   107   54   55 am   BACKBONE|DICT|INTERRES
   108   54  117 1    
   109   55   56 2    
   110   55   57 1    
   111   57   58 1    
   112   57   59 1    
   113   57  118 1    
   114   58  119 1    
   115   58  120 1    
   116   58  121 1    
   117   59   60 am   BACKBONE|DICT|INTERRES
   118   59  122 1    
   119   60   61 2    
   120   60   62 1    
   121   62   63 1    
   122   62   64 1    
   123   62  123 1    
   124   63  124 1    
   125   63  125 1    
   126   63  126 1    
   127   64   65 am   BACKBONE|DICT|INTERRES
   128   64  127 1    
   129   65   66 2    
@<TRIPOS>SUBSTRUCTURE
     1 UNK         1 GROUP             0       ****    0 ROOT    
