@<TRIPOS>MOLECULE
3R135
127   129    1
SMALL
USER_CHARGES


@<TRIPOS>ATOM
      1 CA        -81.7133   31.1720  -75.9510 C.3       0 UNK        -0.1998 
      2 C         -81.1332   29.9707  -75.2193 C.2       0 UNK         0.4909 
      3 O         -80.1000   29.4463  -75.6313 O.2       0 UNK        -0.5240 
      4 N         -81.7877   29.5403  -74.1345 N.am      1 UNK        -0.4739 
      5 CA        -81.4014   28.3843  -73.3151 C.3       1 UNK         0.0864 
      6 C6        -82.1200   28.3987  -71.9421 C.3       11 UNK        -0.0881 
      7 S7        -81.8273   29.9471  -71.0200 S.3       11 UNK        -0.2682 
      8 C8        -80.7229   29.3977  -69.6811 C.3       11 UNK         0.0289 
      9 C9        -79.3557   28.9425  -70.1783 C.ar      11 UNK        -0.0687 
     10 C10       -78.9072   27.6461  -69.9073 C.ar      11 UNK        -0.0823 
     11 C11       -77.6241   27.2367  -70.2848 C.ar      11 UNK        -0.0830 
     12 C12       -76.7901   28.1436  -70.9520 C.ar      11 UNK        -0.1021 
     13 C13       -77.2299   29.4376  -71.2418 C.ar      11 UNK        -0.0753 
     14 C14       -78.5130   29.8325  -70.8521 C.ar      11 UNK        -0.0933 
     15 C15       -76.3015   30.4162  -71.9434 C.3       11 UNK         0.0166 
     16 S16       -76.3498   30.1957  -73.7465 S.3       11 UNK        -0.2615 
     17 C17       -75.2056   31.5102  -74.2913 C.3       11 UNK        -0.0865 
     18 CA        -73.9569   30.9890  -75.0549 C.3       10 UNK         0.0862 
     19 C         -73.1233   32.1966  -75.5797 C.2       10 UNK         0.5551 
     20 N         -71.9479   32.4819  -75.0321 N.am      10 UNK        -0.7319 
     21 O         -73.5588   32.8901  -76.4955 O.2       10 UNK        -0.5018 
     22 N         -73.2041   29.9902  -74.2728 N.am      10 UNK        -0.4509 
     23 C         -72.1932   29.2401  -74.7359 C.2       10 UNK         0.4899 
     24 O         -71.7433   29.3265  -75.8788 O.2       10 UNK        -0.4839 
     25 CA        -71.5524   28.2314  -73.7685 C.3       9 UNK         0.0222 
     26 CB        -72.1393   28.2584  -72.3404 C.3       9 UNK        -0.1966 
     27 N         -71.7263   26.8936  -74.3255 N.am      9 UNK        -0.4218 
     28 C         -70.7552   26.0616  -74.7167 C.2       9 UNK         0.5020 
     29 O         -69.5520   26.3166  -74.6393 O.2       9 UNK        -0.5274 
     30 CA        -71.2016   24.6970  -75.2726 C.3       8 UNK         0.0270 
     31 CB        -71.6135   23.7545  -74.1293 C.3       8 UNK        -0.1976 
     32 N         -72.2958   24.7955  -76.2429 N.am      8 UNK        -0.4313 
     33 C         -72.1708   25.2896  -77.4834 C.2       8 UNK         0.5041 
     34 O         -71.1087   25.6972  -77.9554 O.2       8 UNK        -0.5577 
     35 CA        -73.4405   25.3269  -78.3523 C.3       7 UNK         0.0284 
     36 CB        -73.7183   23.9534  -78.9845 C.3       7 UNK        -0.1958 
     37 N         -74.6108   25.7720  -77.5953 N.am      7 UNK        -0.4454 
     38 C         -74.8252   27.0421  -77.2250 C.2       7 UNK         0.5089 
     39 O         -74.1311   27.9873  -77.5960 O.2       7 UNK        -0.5125 
     40 CA        -76.0049   27.3102  -76.2759 C.3       6 UNK         0.0408 
     41 CB        -77.2709   27.6586  -77.0708 C.3       6 UNK        -0.1791 
     42 N         -76.2921   26.1963  -75.3704 N.am      6 UNK        -0.4762 
     43 C         -75.4698   25.7511  -74.4112 C.2       6 UNK         0.5007 
     44 O         -74.3838   26.2647  -74.1560 O.2       6 UNK        -0.5032 
     45 CA        -75.8905   24.4684  -73.6690 C.3       5 UNK         0.0783 
     46 C46       -76.8171   24.7561  -72.4641 C.3       11 UNK        -0.0857 
     47 S47       -75.8588   25.1249  -70.9618 S.3       11 UNK        -0.2512 
     48 C48       -77.1535   25.8358  -69.8919 C.3       11 UNK         0.0225 
     49 N         -76.4745   23.4913  -74.5882 N.am      5 UNK        -0.4615 
     50 C         -75.7768   22.8173  -75.5107 C.2       4 UNK         0.5053 
     51 O         -74.5617   22.9365  -75.6674 O.2       4 UNK        -0.5105 
     52 CA        -76.5768   21.8836  -76.4337 C.3       4 UNK         0.0263 
     53 CB        -76.7698   20.5086  -75.7752 C.3       4 UNK        -0.1981 
     54 N         -77.8814   22.4418  -76.8015 N.am      4 UNK        -0.4224 
     55 C         -78.0397   23.5138  -77.5907 C.2       3 UNK         0.4895 
     56 O         -77.1062   24.1131  -78.1242 O.2       3 UNK        -0.5091 
     57 CA        -79.4770   24.0279  -77.7861 C.3       3 UNK         0.0250 
     58 CB        -80.1916   23.2274  -78.8867 C.3       3 UNK        -0.1996 
     59 N         -80.2966   24.0313  -76.5657 N.am      3 UNK        -0.4254 
     60 C         -79.9883   24.6929  -75.4416 C.2       2 UNK         0.5004 
     61 O         -78.9175   25.2732  -75.2611 O.2       2 UNK        -0.5226 
     62 CA        -81.0221   24.6840  -74.3075 C.3       2 UNK         0.0269 
     63 CB        -80.7007   23.5755  -73.2925 C.3       2 UNK        -0.1926 
     64 N         -81.0045   25.9810  -73.6260 N.am      2 UNK        -0.4687 
     65 C         -81.6758   27.0568  -74.0563 C.2       1 UNK         0.5165 
     66 O         -82.5042   27.0152  -74.9714 O.2       1 UNK        -0.5079 
     67 H67       -81.9638   30.9009  -76.9762 H         1 UNK         0.0900 
     68 H68       -80.9836   31.9809  -75.9803 H         1 UNK         0.0900 
     69 H69       -82.6159   31.5469  -75.4686 H         1 UNK         0.0900 
     70 H70       -82.6351   30.0077  -73.8472 H         1 UNK         0.2959 
     71 H71       -80.3238   28.4476  -73.1420 H         1 UNK         0.1079 
     72 H72       -81.8031   27.5521  -71.3301 H         1 UNK         0.0837 
     73 H73       -83.1981   28.2864  -72.0740 H         1 UNK         0.0837 
     74 H74       -80.5816   30.2267  -68.9863 H         1 UNK         0.0685 
     75 H75       -81.2188   28.6082  -69.1140 H         1 UNK         0.0685 
     76 H76       -79.5488   26.9611  -69.3693 H         1 UNK         0.1434 
     77 H77       -75.7887   27.8560  -71.2400 H         1 UNK         0.1329 
     78 H78       -78.8533   30.8380  -71.0591 H         1 UNK         0.1335 
     79 H79       -76.5809   31.4419  -71.6968 H         1 UNK         0.0680 
     80 H80       -75.2795   30.2784  -71.5869 H         1 UNK         0.0680 
     81 H81       -75.7799   32.1854  -74.9290 H         1 UNK         0.1032 
     82 H82       -74.8973   32.1089  -73.4321 H         1 UNK         0.1032 
     83 H83       -74.3156   30.4667  -75.9443 H         1 UNK         0.0461 
     84 H84       -71.4168   33.2649  -75.3794 H         1 UNK         0.3453 
     85 H85       -71.5828   31.9147  -74.2844 H         1 UNK         0.3453 
     86 H86       -73.5190   29.8441  -73.3263 H         1 UNK         0.2984 
     87 H87       -70.4925   28.4847  -73.7041 H         1 UNK         0.0554 
     88 H88       -71.6303   27.5381  -71.6997 H         1 UNK         0.0847 
     89 H89       -73.2016   28.0092  -72.3264 H         1 UNK         0.0847 
     90 H90       -72.0138   29.2372  -71.8757 H         1 UNK         0.0847 
     91 H91       -72.6976   26.5934  -74.4225 H         1 UNK         0.3141 
     92 H92       -70.3442   24.2510  -75.7812 H         1 UNK         0.0743 
     93 H93       -72.4792   24.1327  -73.5848 H         1 UNK         0.0784 
     94 H94       -71.8628   22.7615  -74.5043 H         1 UNK         0.0784 
     95 H95       -70.8020   23.6358  -73.4101 H         1 UNK         0.0784 
     96 H96       -73.1927   24.4117  -75.9621 H         1 UNK         0.3213 
     97 H97       -73.2673   26.0382  -79.1631 H         1 UNK         0.0855 
     98 H98       -73.8939   23.1846  -78.2323 H         1 UNK         0.0814 
     99 H99       -72.8725   23.6273  -79.5912 H         1 UNK         0.0814 
    100 H100      -74.5916   23.9872  -79.6364 H         1 UNK         0.0814 
    101 H101      -75.2891   25.0690  -77.3269 H         1 UNK         0.3105 
    102 H102      -75.7355   28.1708  -75.6637 H         1 UNK         0.0547 
    103 H103      -77.5784   26.8385  -77.7198 H         1 UNK         0.0837 
    104 H104      -78.1022   27.8864  -76.4042 H         1 UNK         0.0837 
    105 H105      -77.1087   28.5344  -77.7000 H         1 UNK         0.0837 
    106 H106      -77.2057   25.7533  -75.4669 H         1 UNK         0.3020 
    107 H107      -74.9724   24.0129  -73.2897 H         1 UNK         0.1245 
    108 H108      -77.5229   25.5620  -72.6778 H         1 UNK         0.0781 
    109 H109      -77.4206   23.8776  -72.2329 H         1 UNK         0.0781 
    110 H110      -77.9987   25.1459  -69.8679 H         1 UNK         0.0836 
    111 H111      -76.7663   25.8821  -68.8733 H         1 UNK         0.0836 
    112 H112      -77.4790   23.3990  -74.5724 H         1 UNK         0.3022 
    113 H113      -75.9957   21.7454  -77.3483 H         1 UNK         0.0747 
    114 H114      -77.2683   19.8124  -76.4500 H         1 UNK         0.0793 
    115 H115      -75.8084   20.0666  -75.5091 H         1 UNK         0.0793 
    116 H116      -77.3622   20.5744  -74.8617 H         1 UNK         0.0793 
    117 H117      -78.7022   22.0044  -76.4086 H         1 UNK         0.3047 
    118 H118      -79.4006   25.0645  -78.1210 H         1 UNK         0.0822 
    119 H119      -81.1641   23.6593  -79.1242 H         1 UNK         0.0807 
    120 H120      -80.3471   22.1875  -78.5968 H         1 UNK         0.0807 
    121 H121      -79.6082   23.2249  -79.8088 H         1 UNK         0.0807 
    122 H122      -81.1886   23.5606  -76.6239 H         1 UNK         0.2946 
    123 H123      -82.0148   24.5005  -74.7258 H         1 UNK         0.1144 
    124 H124      -81.4396   23.5483  -72.4915 H         1 UNK         0.0793 
    125 H125      -79.7208   23.7139  -72.8364 H         1 UNK         0.0793 
    126 H126      -80.7050   22.5940  -73.7684 H         1 UNK         0.0793 
    127 H127      -80.3144   26.0931  -72.8979 H         1 UNK         0.2896 
@<TRIPOS>BOND
     1    1    2 1    
     2    1   67 1    
     3    1   68 1    
     4    1   69 1    
     5    2    3 2    
     6    2    4 am   BACKBONE|DICT|INTERRES
     7    4    5 1    
     8    4   70 1    
     9    5    6 1    
    10    5   65 1    
    11    5   71 1    
    12    6    7 1    
    13    6   72 1    
    14    6   73 1    
    15    7    8 1    
    16    8    9 1    
    17    8   74 1    
    18    8   75 1    
    19    9   10 ar   
    20    9   14 ar   
    21   10   11 ar   
    22   10   76 1    
    23   11   12 ar   
    24   11   48 1    
    25   12   13 ar   
    26   12   77 1    
    27   13   14 ar   
    28   13   15 1    
    29   14   78 1    
    30   15   16 1    
    31   15   79 1    
    32   15   80 1    
    33   16   17 1    
    34   17   18 1    
    35   17   81 1    
    36   17   82 1    
    37   18   19 1    
    38   18   22 1    
    39   18   83 1    
    40   19   20 am   BACKBONE|DICT|INTERRES
    41   19   21 2    
    42   20   84 1    
    43   20   85 1    
    44   22   23 am   BACKBONE|DICT|INTERRES
    45   22   86 1    
    46   23   24 2    
    47   23   25 1    
    48   25   26 1    
    49   25   27 1    
    50   25   87 1    
    51   26   88 1    
    52   26   89 1    
    53   26   90 1    
    54   27   28 am   BACKBONE|DICT|INTERRES
    55   27   91 1    
    56   28   29 2    
    57   28   30 1    
    58   30   31 1    
    59   30   32 1    
    60   30   92 1    
    61   31   93 1    
    62   31   94 1    
    63   31   95 1    
    64   32   33 am   BACKBONE|DICT|INTERRES
    65   32   96 1    
    66   33   34 2    
    67   33   35 1    
    68   35   36 1    
    69   35   37 1    
    70   35   97 1    
    71   36   98 1    
    72   36   99 1    
    73   36  100 1    
    74   37   38 am   BACKBONE|DICT|INTERRES
    75   37  101 1    
    76   38   39 2    
    77   38   40 1    
    78   40   41 1    
    79   40   42 1    
    80   40  102 1    
    81   41  103 1    
    82   41  104 1    
    83   41  105 1    
    84   42   43 am   BACKBONE|DICT|INTERRES
    85   42  106 1    
    86   43   44 2    
    87   43   45 1    
    88   45   46 1    
    89   45   49 1    
    90   45  107 1    
    91   46   47 1    
    92   46  108 1    
    93   46  109 1    
    94   47   48 1    
    95   48  110 1    
    96   48  111 1    
    97   49   50 am   BACKBONE|DICT|INTERRES
    98   49  112 1    
    99   50   51 2    
   100   50   52 1    
   101   52   53 1    
   102   52   54 1    
   103   52  113 1    
   104   53  114 1    
   105   53  115 1    
   106   53  116 1    
   107   54   55 am   BACKBONE|DICT|INTERRES
   108   54  117 1    
   109   55   56 2    
   110   55   57 1    
   111   57   58 1    
   112   57   59 1    
   113   57  118 1    
   114   58  119 1    
   115   58  120 1    
   116   58  121 1    
   117   59   60 am   BACKBONE|DICT|INTERRES
   118   59  122 1    
   119   60   61 2    
   120   60   62 1    
   121   62   63 1    
   122   62   64 1    
   123   62  123 1    
   124   63  124 1    
   125   63  125 1    
   126   63  126 1    
   127   64   65 am   BACKBONE|DICT|INTERRES
   128   64  127 1    
   129   65   66 2    
@<TRIPOS>SUBSTRUCTURE
     1 UNK         1 GROUP             0       ****    0 ROOT    
