@<TRIPOS>MOLECULE
3R135
127   129    1
SMALL
USER_CHARGES


@<TRIPOS>ATOM
      1 CA        -82.1166   25.7584  -68.8555 C.3       0 UNK        -0.1998 
      2 C         -82.7733   25.5831  -70.2163 C.2       0 UNK         0.4909 
      3 O         -83.8322   24.9623  -70.3112 O.2       0 UNK        -0.5240 
      4 N         -82.1494   26.1195  -71.2731 N.am      1 UNK        -0.4739 
      5 CA        -82.6321   26.0483  -72.6596 C.3       1 UNK         0.0864 
      6 C6        -82.1408   27.2602  -73.4918 C.3       11 UNK        -0.0881 
      7 S7        -80.3256   27.3486  -73.6863 S.3       11 UNK        -0.2682 
      8 C8        -79.9268   28.8619  -72.7680 C.3       11 UNK         0.0289 
      9 C9        -78.4977   29.2919  -73.0507 C.ar      11 UNK        -0.0687 
     10 C10       -78.2401   30.2882  -73.9976 C.ar      11 UNK        -0.0823 
     11 C11       -76.9293   30.7000  -74.2553 C.ar      11 UNK        -0.0830 
     12 C12       -75.8744   30.0970  -73.5665 C.ar      11 UNK        -0.1021 
     13 C13       -76.1190   29.0954  -72.6227 C.ar      11 UNK        -0.0753 
     14 C14       -77.4338   28.6978  -72.3651 C.ar      11 UNK        -0.0933 
     15 C15       -74.9563   28.4595  -71.8802 C.3       11 UNK         0.0166 
     16 S16       -74.3384   29.5807  -70.5892 S.3       11 UNK        -0.2615 
     17 C17       -72.6794   28.8970  -70.2656 C.3       11 UNK        -0.0865 
     18 CA        -71.5699   29.6553  -71.0489 C.3       10 UNK         0.0862 
     19 C         -70.1519   29.3825  -70.4650 C.2       10 UNK         0.5551 
     20 N         -69.1333   29.1295  -71.2789 N.am      10 UNK        -0.7319 
     21 O         -69.9633   29.4182  -69.2514 O.2       10 UNK        -0.5018 
     22 N         -71.6529   29.3772  -72.4938 N.am      10 UNK        -0.4509 
     23 C         -71.9391   30.2602  -73.4598 C.2       10 UNK         0.4899 
     24 O         -72.1871   31.4480  -73.2523 O.2       10 UNK        -0.4839 
     25 CA        -71.9438   29.7401  -74.9126 C.3       9 UNK         0.0222 
     26 CB        -70.9138   30.5016  -75.7651 C.3       9 UNK        -0.1966 
     27 N         -71.6564   28.3029  -74.9952 N.am      9 UNK        -0.4218 
     28 C         -72.5793   27.3413  -75.1112 C.2       9 UNK         0.5020 
     29 O         -73.7891   27.5406  -75.2456 O.2       9 UNK        -0.5274 
     30 CA        -72.0650   25.9030  -75.0149 C.3       8 UNK         0.0270 
     31 CB        -72.0235   25.4379  -73.5460 C.3       8 UNK        -0.1976 
     32 N         -72.9660   25.0591  -75.7863 N.am      8 UNK        -0.4313 
     33 C         -72.6948   23.8408  -76.2653 C.2       8 UNK         0.5041 
     34 O         -71.6373   23.2414  -76.0657 O.2       8 UNK        -0.5577 
     35 CA        -73.7883   23.1796  -77.1214 C.3       7 UNK         0.0284 
     36 CB        -74.6926   22.3030  -76.2419 C.3       7 UNK        -0.1958 
     37 N         -74.6054   24.1578  -77.8474 N.am      7 UNK        -0.4454 
     38 C         -74.1681   24.8604  -78.9037 C.2       7 UNK         0.5089 
     39 O         -73.0445   24.7348  -79.3917 O.2       7 UNK        -0.5125 
     40 CA        -75.1340   25.8836  -79.5109 C.3       6 UNK         0.0408 
     41 CB        -76.1628   25.1817  -80.4124 C.3       6 UNK        -0.1791 
     42 N         -75.8404   26.6248  -78.4673 N.am      6 UNK        -0.4762 
     43 C         -75.6898   27.9304  -78.1963 C.2       6 UNK         0.5007 
     44 O         -74.8658   28.6425  -78.7727 O.2       6 UNK        -0.5032 
     45 CA        -76.6267   28.5470  -77.1214 C.3       5 UNK         0.0783 
     46 C46       -77.0143   30.0236  -77.4214 C.3       11 UNK        -0.0857 
     47 S47       -75.7958   31.2036  -76.7483 S.3       11 UNK        -0.2512 
     48 C48       -76.6514   31.8108  -75.2595 C.3       11 UNK         0.0225 
     49 N         -77.7950   27.7026  -76.8342 N.am      5 UNK        -0.4615 
     50 C         -78.7798   27.3762  -77.6852 C.2       4 UNK         0.5053 
     51 O         -78.9239   27.9012  -78.7897 O.2       4 UNK        -0.5105 
     52 CA        -79.7374   26.2419  -77.2553 C.3       4 UNK         0.0263 
     53 CB        -80.1136   25.3297  -78.4414 C.3       4 UNK        -0.1981 
     54 N         -79.2573   25.4275  -76.1276 N.am      4 UNK        -0.4224 
     55 C         -78.1268   24.7086  -76.0422 C.2       3 UNK         0.4895 
     56 O         -77.2861   24.6308  -76.9403 O.2       3 UNK        -0.5091 
     57 CA        -77.8448   24.0190  -74.6990 C.3       3 UNK         0.0250 
     58 CB        -76.8926   24.8857  -73.8557 C.3       3 UNK        -0.1996 
     59 N         -79.0545   23.7305  -73.9235 N.am      3 UNK        -0.4254 
     60 C         -79.8862   22.7074  -74.1720 C.2       2 UNK         0.5004 
     61 O         -79.7287   21.9041  -75.0917 O.2       2 UNK        -0.5226 
     62 CA        -81.0915   22.5439  -73.2305 C.3       2 UNK         0.0269 
     63 CB        -80.7443   21.5942  -72.0725 C.3       2 UNK        -0.1926 
     64 N         -81.5566   23.8206  -72.6828 N.am      2 UNK        -0.4687 
     65 C         -82.3069   24.7054  -73.3555 C.2       1 UNK         0.5165 
     66 O         -82.7204   24.5044  -74.4984 O.2       1 UNK        -0.5079 
     67 H67       -82.7886   26.2882  -68.1809 H         1 UNK         0.0900 
     68 H68       -81.8924   24.7857  -68.4185 H         1 UNK         0.0900 
     69 H69       -81.1871   26.3237  -68.9204 H         1 UNK         0.0900 
     70 H70       -81.2781   26.6139  -71.1436 H         1 UNK         0.2959 
     71 H71       -83.7230   26.1044  -72.6359 H         1 UNK         0.1079 
     72 H72       -82.5856   27.2402  -74.4887 H         1 UNK         0.0837 
     73 H73       -82.5065   28.1820  -73.0370 H         1 UNK         0.0837 
     74 H74       -80.6196   29.6564  -73.0501 H         1 UNK         0.0685 
     75 H75       -80.0654   28.6915  -71.6994 H         1 UNK         0.0685 
     76 H76       -79.0628   30.7474  -74.5288 H         1 UNK         0.1434 
     77 H77       -74.8598   30.4140  -73.7607 H         1 UNK         0.1329 
     78 H78       -77.6310   27.9269  -71.6329 H         1 UNK         0.1335 
     79 H79       -75.2516   27.5114  -71.4282 H         1 UNK         0.0680 
     80 H80       -74.1630   28.2290  -72.5905 H         1 UNK         0.0680 
     81 H81       -72.5195   28.9783  -69.1888 H         1 UNK         0.1032 
     82 H82       -72.6589   27.8290  -70.4896 H         1 UNK         0.1032 
     83 H83       -71.7217   30.7230  -70.8810 H         1 UNK         0.0461 
     84 H84       -69.2543   29.1483  -72.2779 H         1 UNK         0.3453 
     85 H85       -68.2205   28.9619  -70.8852 H         1 UNK         0.3453 
     86 H86       -71.4563   28.4256  -72.7611 H         1 UNK         0.2984 
     87 H87       -72.9349   29.9437  -75.3242 H         1 UNK         0.0554 
     88 H88       -71.1235   31.5722  -75.7694 H         1 UNK         0.0847 
     89 H89       -70.9354   30.1679  -76.8028 H         1 UNK         0.0847 
     90 H90       -69.8982   30.3703  -75.3901 H         1 UNK         0.0847 
     91 H91       -70.6843   28.0351  -74.9231 H         1 UNK         0.3141 
     92 H92       -71.0657   25.8488  -75.4524 H         1 UNK         0.0743 
     93 H93       -73.0084   25.4930  -73.0797 H         1 UNK         0.0784 
     94 H94       -71.6740   24.4087  -73.4634 H         1 UNK         0.0784 
     95 H95       -71.3450   26.0537  -72.9551 H         1 UNK         0.0784 
     96 H96       -73.8431   25.5071  -76.0222 H         1 UNK         0.3213 
     97 H97       -73.2971   22.5358  -77.8546 H         1 UNK         0.0855 
     98 H98       -75.1185   22.8724  -75.4169 H         1 UNK         0.0814 
     99 H99       -74.1255   21.4799  -75.8051 H         1 UNK         0.0814 
    100 H100      -75.5116   21.8667  -76.8143 H         1 UNK         0.0814 
    101 H101      -75.5602   24.2967  -77.5229 H         1 UNK         0.3105 
    102 H102      -74.5499   26.5633  -80.1348 H         1 UNK         0.0547 
    103 H103      -75.6685   24.6247  -81.2093 H         1 UNK         0.0837 
    104 H104      -76.7796   24.4763  -79.8537 H         1 UNK         0.0837 
    105 H105      -76.8291   25.9032  -80.8856 H         1 UNK         0.0837 
    106 H106      -76.5210   26.0962  -77.9293 H         1 UNK         0.3020 
    107 H107      -76.0475   28.5300  -76.1965 H         1 UNK         0.1245 
    108 H108      -77.9885   30.2579  -76.9903 H         1 UNK         0.0781 
    109 H109      -77.1291   30.1968  -78.4931 H         1 UNK         0.0781 
    110 H110      -77.5749   32.3111  -75.5552 H         1 UNK         0.0836 
    111 H111      -76.0319   32.5731  -74.7849 H         1 UNK         0.0836 
    112 H112      -77.7841   27.2424  -75.9358 H         1 UNK         0.3022 
    113 H113      -80.6483   26.7325  -76.9088 H         1 UNK         0.0747 
    114 H114      -80.8032   24.5440  -78.1328 H         1 UNK         0.0793 
    115 H115      -80.6046   25.8953  -79.2343 H         1 UNK         0.0793 
    116 H116      -79.2356   24.8527  -78.8782 H         1 UNK         0.0793 
    117 H117      -79.8441   25.4579  -75.3045 H         1 UNK         0.3047 
    118 H118      -77.3497   23.0717  -74.9182 H         1 UNK         0.0822 
    119 H119      -76.6003   24.3749  -72.9381 H         1 UNK         0.0807 
    120 H120      -77.3477   25.8376  -73.5785 H         1 UNK         0.0807 
    121 H121      -75.9755   25.1129  -74.4018 H         1 UNK         0.0807 
    122 H122      -79.2591   24.3391  -73.1443 H         1 UNK         0.2946 
    123 H123      -81.9012   22.0938  -73.8103 H         1 UNK         0.1144 
    124 H124      -81.6091   21.4167  -71.4327 H         1 UNK         0.0793 
    125 H125      -79.9407   21.9894  -71.4498 H         1 UNK         0.0793 
    126 H126      -80.4175   20.6237  -72.4491 H         1 UNK         0.0793 
    127 H127      -81.2744   24.0542  -71.7421 H         1 UNK         0.2896 
@<TRIPOS>BOND
     1    1    2 1    
     2    1   67 1    
     3    1   68 1    
     4    1   69 1    
     5    2    3 2    
     6    2    4 am   BACKBONE|DICT|INTERRES
     7    4    5 1    
     8    4   70 1    
     9    5    6 1    
    10    5   65 1    
    11    5   71 1    
    12    6    7 1    
    13    6   72 1    
    14    6   73 1    
    15    7    8 1    
    16    8    9 1    
    17    8   74 1    
    18    8   75 1    
    19    9   10 ar   
    20    9   14 ar   
    21   10   11 ar   
    22   10   76 1    
    23   11   12 ar   
    24   11   48 1    
    25   12   13 ar   
    26   12   77 1    
    27   13   14 ar   
    28   13   15 1    
    29   14   78 1    
    30   15   16 1    
    31   15   79 1    
    32   15   80 1    
    33   16   17 1    
    34   17   18 1    
    35   17   81 1    
    36   17   82 1    
    37   18   19 1    
    38   18   22 1    
    39   18   83 1    
    40   19   20 am   BACKBONE|DICT|INTERRES
    41   19   21 2    
    42   20   84 1    
    43   20   85 1    
    44   22   23 am   BACKBONE|DICT|INTERRES
    45   22   86 1    
    46   23   24 2    
    47   23   25 1    
    48   25   26 1    
    49   25   27 1    
    50   25   87 1    
    51   26   88 1    
    52   26   89 1    
    53   26   90 1    
    54   27   28 am   BACKBONE|DICT|INTERRES
    55   27   91 1    
    56   28   29 2    
    57   28   30 1    
    58   30   31 1    
    59   30   32 1    
    60   30   92 1    
    61   31   93 1    
    62   31   94 1    
    63   31   95 1    
    64   32   33 am   BACKBONE|DICT|INTERRES
    65   32   96 1    
    66   33   34 2    
    67   33   35 1    
    68   35   36 1    
    69   35   37 1    
    70   35   97 1    
    71   36   98 1    
    72   36   99 1    
    73   36  100 1    
    74   37   38 am   BACKBONE|DICT|INTERRES
    75   37  101 1    
    76   38   39 2    
    77   38   40 1    
    78   40   41 1    
    79   40   42 1    
    80   40  102 1    
    81   41  103 1    
    82   41  104 1    
    83   41  105 1    
    84   42   43 am   BACKBONE|DICT|INTERRES
    85   42  106 1    
    86   43   44 2    
    87   43   45 1    
    88   45   46 1    
    89   45   49 1    
    90   45  107 1    
    91   46   47 1    
    92   46  108 1    
    93   46  109 1    
    94   47   48 1    
    95   48  110 1    
    96   48  111 1    
    97   49   50 am   BACKBONE|DICT|INTERRES
    98   49  112 1    
    99   50   51 2    
   100   50   52 1    
   101   52   53 1    
   102   52   54 1    
   103   52  113 1    
   104   53  114 1    
   105   53  115 1    
   106   53  116 1    
   107   54   55 am   BACKBONE|DICT|INTERRES
   108   54  117 1    
   109   55   56 2    
   110   55   57 1    
   111   57   58 1    
   112   57   59 1    
   113   57  118 1    
   114   58  119 1    
   115   58  120 1    
   116   58  121 1    
   117   59   60 am   BACKBONE|DICT|INTERRES
   118   59  122 1    
   119   60   61 2    
   120   60   62 1    
   121   62   63 1    
   122   62   64 1    
   123   62  123 1    
   124   63  124 1    
   125   63  125 1    
   126   63  126 1    
   127   64   65 am   BACKBONE|DICT|INTERRES
   128   64  127 1    
   129   65   66 2    
@<TRIPOS>SUBSTRUCTURE
     1 UNK         1 GROUP             0       ****    0 ROOT    
