@<TRIPOS>MOLECULE
3R135
127   129    1
SMALL
USER_CHARGES


@<TRIPOS>ATOM
      1 CA        -83.3020   29.6857  -76.4847 C.3       0 UNK        -0.1998 
      2 C         -82.2958   28.9816  -75.5865 C.2       0 UNK         0.4909 
      3 O         -81.2572   28.5327  -76.0698 O.2       0 UNK        -0.5240 
      4 N         -82.5961   28.8922  -74.2849 N.am      1 UNK        -0.4739 
      5 CA        -81.7716   28.2272  -73.2682 C.3       1 UNK         0.0864 
      6 C6        -82.2352   28.5924  -71.8353 C.3       11 UNK        -0.0881 
      7 S7        -82.0980   30.3829  -71.5096 S.3       11 UNK        -0.2682 
      8 C8        -80.7242   30.4519  -70.3124 C.3       11 UNK         0.0289 
      9 C9        -79.4148   29.9044  -70.8692 C.ar      11 UNK        -0.0687 
     10 C10       -78.8416   30.4650  -72.0153 C.ar      11 UNK        -0.0823 
     11 C11       -77.6332   29.9722  -72.5138 C.ar      11 UNK        -0.0830 
     12 C12       -76.9883   28.9264  -71.8509 C.ar      11 UNK        -0.1021 
     13 C13       -77.5375   28.3659  -70.6945 C.ar      11 UNK        -0.0753 
     14 C14       -78.7586   28.8545  -70.2167 C.ar      11 UNK        -0.0933 
     15 C15       -76.8309   27.2334  -69.9544 C.3       11 UNK         0.0166 
     16 S16       -75.0290   27.4876  -69.7871 S.3       11 UNK        -0.2615 
     17 C17       -74.3882   26.4907  -71.1740 C.3       11 UNK        -0.0865 
     18 CA        -73.0900   27.0789  -71.8030 C.3       10 UNK         0.0862 
     19 C         -72.0063   25.9763  -71.9694 C.2       10 UNK         0.5551 
     20 N         -71.8720   25.3460  -73.1317 N.am      10 UNK        -0.7319 
     21 O         -71.2756   25.6883  -71.0252 O.2       10 UNK        -0.5018 
     22 N         -73.3532   27.7676  -73.0779 N.am      10 UNK        -0.4509 
     23 C         -73.0419   29.0423  -73.3435 C.2       10 UNK         0.4899 
     24 O         -72.6959   29.8579  -72.4877 O.2       10 UNK        -0.4839 
     25 CA        -73.1116   29.4682  -74.8284 C.3       9 UNK         0.0222 
     26 CB        -72.4387   30.8326  -75.0924 C.3       9 UNK        -0.1966 
     27 N         -72.5975   28.4451  -75.7562 N.am      9 UNK        -0.4218 
     28 C         -71.3562   27.9309  -75.7540 C.2       9 UNK         0.5020 
     29 O         -70.4883   28.2709  -74.9479 O.2       9 UNK        -0.5274 
     30 CA        -71.0031   26.8761  -76.8186 C.3       8 UNK         0.0270 
     31 CB        -69.8399   25.9625  -76.3643 C.3       8 UNK        -0.1976 
     32 N         -72.1458   26.0578  -77.2466 N.am      8 UNK        -0.4313 
     33 C         -72.1610   25.3776  -78.4047 C.2       8 UNK         0.5041 
     34 O         -71.2873   25.4778  -79.2682 O.2       8 UNK        -0.5577 
     35 CA        -73.3192   24.3940  -78.6409 C.3       7 UNK         0.0284 
     36 CB        -73.2279   23.1995  -77.6777 C.3       7 UNK        -0.1958 
     37 N         -74.6341   25.0252  -78.5452 N.am      7 UNK        -0.4454 
     38 C         -75.1005   25.9364  -79.4116 C.2       7 UNK         0.5089 
     39 O         -74.4891   26.3171  -80.4104 O.2       7 UNK        -0.5125 
     40 CA        -76.4841   26.5361  -79.1088 C.3       6 UNK         0.0408 
     41 CB        -77.5970   25.6831  -79.7378 C.3       6 UNK        -0.1791 
     42 N         -76.7374   26.6909  -77.6757 N.am      6 UNK        -0.4762 
     43 C         -76.0473   27.5041  -76.8630 C.2       6 UNK         0.5007 
     44 O         -75.1112   28.2163  -77.2275 O.2       6 UNK        -0.5032 
     45 CA        -76.4272   27.4466  -75.3738 C.3       5 UNK         0.0783 
     46 C46       -77.7890   28.1330  -75.0984 C.3       11 UNK        -0.0857 
     47 S47       -77.7758   29.9505  -75.2994 S.3       11 UNK        -0.2512 
     48 C48       -77.0094   30.5667  -73.7650 C.3       11 UNK         0.0225 
     49 N         -76.3963   26.0592  -74.9002 N.am      5 UNK        -0.4615 
     50 C         -75.2896   25.3035  -74.8045 C.2       4 UNK         0.5053 
     51 O         -74.1506   25.7441  -74.9886 O.2       4 UNK        -0.5105 
     52 CA        -75.4610   23.8099  -74.4556 C.3       4 UNK         0.0263 
     53 CB        -75.1878   23.5590  -72.9661 C.3       4 UNK        -0.1981 
     54 N         -76.7771   23.2662  -74.7851 N.am      4 UNK        -0.4224 
     55 C         -77.3014   23.1728  -76.0150 C.2       3 UNK         0.4895 
     56 O         -76.6893   23.4632  -77.0430 O.2       3 UNK        -0.5091 
     57 CA        -78.7853   22.7570  -76.0946 C.3       3 UNK         0.0250 
     58 CB        -78.9067   21.2415  -76.3170 C.3       3 UNK        -0.1996 
     59 N         -79.5749   23.1475  -74.9127 N.am      3 UNK        -0.4254 
     60 C         -79.7015   24.4097  -74.4765 C.2       2 UNK         0.5004 
     61 O         -79.1851   25.3690  -75.0507 O.2       2 UNK        -0.5226 
     62 CA        -80.4264   24.6272  -73.1379 C.3       2 UNK         0.0269 
     63 CB        -79.5479   24.1423  -71.9708 C.3       2 UNK        -0.1926 
     64 N         -80.7095   26.0501  -72.9356 N.am      2 UNK        -0.4687 
     65 C         -81.7584   26.6952  -73.4588 C.2       1 UNK         0.5165 
     66 O         -82.6931   26.1266  -74.0313 O.2       1 UNK        -0.5079 
     67 H67       -84.1640   30.0494  -75.9256 H         1 UNK         0.0900 
     68 H68       -82.8333   30.5374  -76.9769 H         1 UNK         0.0900 
     69 H69       -83.6603   29.0019  -77.2537 H         1 UNK         0.0900 
     70 H70       -83.4675   29.2763  -73.9495 H         1 UNK         0.2959 
     71 H71       -80.7455   28.5790  -73.4019 H         1 UNK         0.1079 
     72 H72       -83.2742   28.2945  -71.6813 H         1 UNK         0.0837 
     73 H73       -81.6553   28.0499  -71.0862 H         1 UNK         0.0837 
     74 H74       -80.5715   31.4902  -70.0152 H         1 UNK         0.0685 
     75 H75       -81.0193   29.9159  -69.4089 H         1 UNK         0.0685 
     76 H76       -79.3418   31.2780  -72.5240 H         1 UNK         0.1434 
     77 H77       -76.0503   28.5550  -72.2359 H         1 UNK         0.1329 
     78 H78       -79.1934   28.4249  -69.3244 H         1 UNK         0.1335 
     79 H79       -77.2407   27.1373  -68.9478 H         1 UNK         0.0680 
     80 H80       -77.0373   26.2872  -70.4560 H         1 UNK         0.0680 
     81 H81       -74.2300   25.4890  -70.7684 H         1 UNK         0.1032 
     82 H82       -75.1622   26.3745  -71.9325 H         1 UNK         0.1032 
     83 H83       -72.6547   27.7873  -71.0955 H         1 UNK         0.0461 
     84 H84       -72.5050   25.5204  -73.8995 H         1 UNK         0.3453 
     85 H85       -71.1595   24.6395  -73.2178 H         1 UNK         0.3453 
     86 H86       -73.5916   27.1618  -73.8557 H         1 UNK         0.2984 
     87 H87       -74.1645   29.5970  -75.0688 H         1 UNK         0.0554 
     88 H88       -72.5218   31.1196  -76.1405 H         1 UNK         0.0847 
     89 H89       -71.3803   30.8217  -74.8301 H         1 UNK         0.0847 
     90 H90       -72.9097   31.6213  -74.5045 H         1 UNK         0.0847 
     91 H91       -73.2567   28.1465  -76.4697 H         1 UNK         0.3141 
     92 H92       -70.6585   27.4524  -77.6798 H         1 UNK         0.0743 
     93 H93       -70.1177   25.3670  -75.4945 H         1 UNK         0.0784 
     94 H94       -69.5302   25.2766  -77.1525 H         1 UNK         0.0784 
     95 H95       -68.9576   26.5443  -76.0947 H         1 UNK         0.0784 
     96 H96       -72.8982   25.9275  -76.5764 H         1 UNK         0.3213 
     97 H97       -73.2220   24.0045  -79.6569 H         1 UNK         0.0855 
     98 H98       -73.1990   23.5187  -76.6373 H         1 UNK         0.0814 
     99 H99       -72.3169   22.6283  -77.8604 H         1 UNK         0.0814 
    100 H100      -74.0690   22.5169  -77.8017 H         1 UNK         0.0814 
    101 H101      -75.2550   24.7033  -77.8099 H         1 UNK         0.3105 
    102 H102      -76.5202   27.5297  -79.5607 H         1 UNK         0.0547 
    103 H103      -78.5770   26.1374  -79.5915 H         1 UNK         0.0837 
    104 H104      -77.4465   25.5794  -80.8132 H         1 UNK         0.0837 
    105 H105      -77.6257   24.6780  -79.3156 H         1 UNK         0.0837 
    106 H106      -77.4612   26.1102  -77.2746 H         1 UNK         0.3020 
    107 H107      -75.6682   27.9844  -74.8106 H         1 UNK         0.1245 
    108 H108      -78.1482   27.8830  -74.1010 H         1 UNK         0.0781 
    109 H109      -78.5564   27.7471  -75.7714 H         1 UNK         0.0781 
    110 H110      -77.1053   31.6532  -73.7382 H         1 UNK         0.0836 
    111 H111      -75.9391   30.3652  -73.7874 H         1 UNK         0.0836 
    112 H112      -77.3077   25.6255  -74.7813 H         1 UNK         0.3022 
    113 H113      -74.7245   23.2488  -75.0298 H         1 UNK         0.0747 
    114 H114      -75.2414   22.4962  -72.7290 H         1 UNK         0.0793 
    115 H115      -74.1882   23.8909  -72.6891 H         1 UNK         0.0793 
    116 H116      -75.9032   24.0782  -72.3277 H         1 UNK         0.0793 
    117 H117      -77.3579   22.9907  -74.0074 H         1 UNK         0.3047 
    118 H118      -79.2148   23.2667  -76.9598 H         1 UNK         0.0822 
    119 H119      -78.5187   20.6750  -75.4695 H         1 UNK         0.0807 
    120 H120      -78.3463   20.9312  -77.2003 H         1 UNK         0.0807 
    121 H121      -79.9439   20.9447  -76.4742 H         1 UNK         0.0807 
    122 H122      -80.0151   22.4007  -74.3935 H         1 UNK         0.2946 
    123 H123      -81.3615   24.0621  -73.1484 H         1 UNK         0.1144 
    124 H124      -79.3493   23.0721  -72.0401 H         1 UNK         0.0793 
    125 H125      -78.5844   24.6537  -71.9482 H         1 UNK         0.0793 
    126 H126      -80.0372   24.3130  -71.0115 H         1 UNK         0.0793 
    127 H127      -79.9770   26.5903  -72.4989 H         1 UNK         0.2896 
@<TRIPOS>BOND
     1    1    2 1    
     2    1   67 1    
     3    1   68 1    
     4    1   69 1    
     5    2    3 2    
     6    2    4 am   BACKBONE|DICT|INTERRES
     7    4    5 1    
     8    4   70 1    
     9    5    6 1    
    10    5   65 1    
    11    5   71 1    
    12    6    7 1    
    13    6   72 1    
    14    6   73 1    
    15    7    8 1    
    16    8    9 1    
    17    8   74 1    
    18    8   75 1    
    19    9   10 ar   
    20    9   14 ar   
    21   10   11 ar   
    22   10   76 1    
    23   11   12 ar   
    24   11   48 1    
    25   12   13 ar   
    26   12   77 1    
    27   13   14 ar   
    28   13   15 1    
    29   14   78 1    
    30   15   16 1    
    31   15   79 1    
    32   15   80 1    
    33   16   17 1    
    34   17   18 1    
    35   17   81 1    
    36   17   82 1    
    37   18   19 1    
    38   18   22 1    
    39   18   83 1    
    40   19   20 am   BACKBONE|DICT|INTERRES
    41   19   21 2    
    42   20   84 1    
    43   20   85 1    
    44   22   23 am   BACKBONE|DICT|INTERRES
    45   22   86 1    
    46   23   24 2    
    47   23   25 1    
    48   25   26 1    
    49   25   27 1    
    50   25   87 1    
    51   26   88 1    
    52   26   89 1    
    53   26   90 1    
    54   27   28 am   BACKBONE|DICT|INTERRES
    55   27   91 1    
    56   28   29 2    
    57   28   30 1    
    58   30   31 1    
    59   30   32 1    
    60   30   92 1    
    61   31   93 1    
    62   31   94 1    
    63   31   95 1    
    64   32   33 am   BACKBONE|DICT|INTERRES
    65   32   96 1    
    66   33   34 2    
    67   33   35 1    
    68   35   36 1    
    69   35   37 1    
    70   35   97 1    
    71   36   98 1    
    72   36   99 1    
    73   36  100 1    
    74   37   38 am   BACKBONE|DICT|INTERRES
    75   37  101 1    
    76   38   39 2    
    77   38   40 1    
    78   40   41 1    
    79   40   42 1    
    80   40  102 1    
    81   41  103 1    
    82   41  104 1    
    83   41  105 1    
    84   42   43 am   BACKBONE|DICT|INTERRES
    85   42  106 1    
    86   43   44 2    
    87   43   45 1    
    88   45   46 1    
    89   45   49 1    
    90   45  107 1    
    91   46   47 1    
    92   46  108 1    
    93   46  109 1    
    94   47   48 1    
    95   48  110 1    
    96   48  111 1    
    97   49   50 am   BACKBONE|DICT|INTERRES
    98   49  112 1    
    99   50   51 2    
   100   50   52 1    
   101   52   53 1    
   102   52   54 1    
   103   52  113 1    
   104   53  114 1    
   105   53  115 1    
   106   53  116 1    
   107   54   55 am   BACKBONE|DICT|INTERRES
   108   54  117 1    
   109   55   56 2    
   110   55   57 1    
   111   57   58 1    
   112   57   59 1    
   113   57  118 1    
   114   58  119 1    
   115   58  120 1    
   116   58  121 1    
   117   59   60 am   BACKBONE|DICT|INTERRES
   118   59  122 1    
   119   60   61 2    
   120   60   62 1    
   121   62   63 1    
   122   62   64 1    
   123   62  123 1    
   124   63  124 1    
   125   63  125 1    
   126   63  126 1    
   127   64   65 am   BACKBONE|DICT|INTERRES
   128   64  127 1    
   129   65   66 2    
@<TRIPOS>SUBSTRUCTURE
     1 UNK         1 GROUP             0       ****    0 ROOT    
