@<TRIPOS>MOLECULE
3R135
127   129    1
SMALL
USER_CHARGES


@<TRIPOS>ATOM
      1 CA        -81.1752   26.4685  -70.8197 C.3       0 UNK        -0.1998 
      2 C         -81.7002   27.0043  -72.1437 C.2       0 UNK         0.4909 
      3 O         -82.7209   27.6924  -72.1671 O.2       0 UNK        -0.5240 
      4 N         -81.0115   26.6909  -73.2444 N.am      1 UNK        -0.4739 
      5 CA        -81.3834   27.0518  -74.6094 C.3       1 UNK         0.0864 
      6 C6        -80.9960   28.5078  -74.9944 C.3       11 UNK        -0.0881 
      7 S7        -79.2151   28.8996  -74.8414 S.3       11 UNK        -0.2682 
      8 C8        -79.1720   29.8362  -73.2776 C.3       11 UNK         0.0289 
      9 C9        -77.9433   29.4558  -72.4697 C.ar      11 UNK        -0.0687 
     10 C10       -77.8981   28.2100  -71.8461 C.ar      11 UNK        -0.0823 
     11 C11       -76.7514   27.7874  -71.1741 C.ar      11 UNK        -0.0830 
     12 C12       -75.6583   28.6520  -71.0749 C.ar      11 UNK        -0.1021 
     13 C13       -75.6903   29.9139  -71.6815 C.ar      11 UNK        -0.0753 
     14 C14       -76.8438   30.3124  -72.3721 C.ar      11 UNK        -0.0933 
     15 C15       -74.4703   30.8257  -71.5809 C.3       11 UNK         0.0166 
     16 S16       -74.0822   31.6816  -73.1441 S.3       11 UNK        -0.2615 
     17 C17       -72.3639   32.2252  -72.8444 C.3       11 UNK        -0.0865 
     18 CA        -71.3693   31.5848  -73.8544 C.3       10 UNK         0.0862 
     19 C         -69.9314   32.1823  -73.7653 C.2       10 UNK         0.5551 
     20 N         -68.8893   31.4364  -74.1124 N.am      10 UNK        -0.7319 
     21 O         -69.7555   33.3449  -73.4079 O.2       10 UNK        -0.5018 
     22 N         -71.4346   30.1124  -73.8664 N.am      10 UNK        -0.4509 
     23 C         -71.0515   29.2841  -72.8824 C.2       10 UNK         0.4899 
     24 O         -70.5603   29.6712  -71.8218 O.2       10 UNK        -0.4839 
     25 CA        -71.2570   27.7674  -73.0896 C.3       9 UNK         0.0222 
     26 CB        -72.1787   27.1861  -72.0040 C.3       9 UNK        -0.1966 
     27 N         -71.8174   27.4235  -74.3967 N.am      9 UNK        -0.4218 
     28 C         -71.1535   27.4110  -75.5598 C.2       9 UNK         0.5020 
     29 O         -69.9394   27.5893  -75.6613 O.2       9 UNK        -0.5274 
     30 CA        -72.0051   27.2125  -76.8272 C.3       8 UNK         0.0270 
     31 CB        -71.9667   25.7441  -77.2787 C.3       8 UNK        -0.1976 
     32 N         -73.4007   27.6456  -76.6581 N.am      8 UNK        -0.4313 
     33 C         -73.7780   28.9251  -76.4890 C.2       8 UNK         0.5041 
     34 O         -72.9669   29.8511  -76.4504 O.2       8 UNK        -0.5577 
     35 CA        -75.2762   29.2380  -76.2737 C.3       7 UNK         0.0284 
     36 CB        -75.7172   30.5171  -77.0137 C.3       7 UNK        -0.1958 
     37 N         -76.1874   28.1248  -76.5640 N.am      7 UNK        -0.4454 
     38 C         -76.3849   27.4927  -77.7313 C.2       7 UNK         0.5089 
     39 O         -75.8613   27.8275  -78.7944 O.2       7 UNK        -0.5125 
     40 CA        -77.2869   26.2391  -77.6738 C.3       6 UNK         0.0408 
     41 CB        -77.0124   25.2590  -78.8333 C.3       6 UNK        -0.1791 
     42 N         -77.2260   25.5363  -76.3810 N.am      6 UNK        -0.4762 
     43 C         -76.1232   25.0539  -75.7814 C.2       6 UNK         0.5007 
     44 O         -75.0032   25.0946  -76.2891 O.2       6 UNK        -0.5032 
     45 CA        -76.2671   24.5241  -74.3465 C.3       5 UNK         0.0783 
     46 C46       -76.1749   25.7142  -73.3606 C.3       11 UNK        -0.0857 
     47 S47       -75.7018   25.2444  -71.6608 S.3       11 UNK        -0.2512 
     48 C48       -76.6896   26.3720  -70.6141 C.3       11 UNK         0.0225 
     49 N         -77.5146   23.7690  -74.1998 N.am      5 UNK        -0.4615 
     50 C         -77.6346   22.6176  -73.5294 C.2       4 UNK         0.5053 
     51 O         -76.7109   22.0594  -72.9369 O.2       4 UNK        -0.5105 
     52 CA        -79.0253   21.9630  -73.5446 C.3       4 UNK         0.0263 
     53 CB        -80.0080   22.7349  -72.6475 C.3       4 UNK        -0.1981 
     54 N         -79.5727   21.8569  -74.8982 N.am      4 UNK        -0.4224 
     55 C         -79.0839   21.0800  -75.8744 C.2       3 UNK         0.4895 
     56 O         -78.1389   20.3059  -75.7200 O.2       3 UNK        -0.5091 
     57 CA        -79.7364   21.1832  -77.2676 C.3       3 UNK         0.0250 
     58 CB        -80.9311   20.2176  -77.3973 C.3       3 UNK        -0.1996 
     59 N         -80.0892   22.5522  -77.6780 N.am      3 UNK        -0.4254 
     60 C         -81.0183   23.3659  -77.1583 C.2       2 UNK         0.5004 
     61 O         -81.7961   23.0420  -76.2575 O.2       2 UNK        -0.5226 
     62 CA        -81.0582   24.7972  -77.7213 C.3       2 UNK         0.0269 
     63 CB        -82.0500   24.8850  -78.8919 C.3       2 UNK        -0.1926 
     64 N         -81.4222   25.7942  -76.7084 N.am      2 UNK        -0.4687 
     65 C         -80.7779   25.9985  -75.5505 C.2       1 UNK         0.5165 
     66 O         -79.7467   25.3995  -75.2161 O.2       1 UNK        -0.5079 
     67 H67       -81.9709   25.9542  -70.2815 H         1 UNK         0.0900 
     68 H68       -80.8183   27.2890  -70.1978 H         1 UNK         0.0900 
     69 H69       -80.3560   25.7638  -70.9605 H         1 UNK         0.0900 
     70 H70       -80.1977   26.0919  -73.2024 H         1 UNK         0.2959 
     71 H71       -82.4686   26.9556  -74.6916 H         1 UNK         0.1079 
     72 H72       -81.2929   28.7115  -76.0247 H         1 UNK         0.0837 
     73 H73       -81.5742   29.2100  -74.3925 H         1 UNK         0.0837 
     74 H74       -79.1840   30.9048  -73.4967 H         1 UNK         0.0685 
     75 H75       -80.0622   29.6303  -72.6818 H         1 UNK         0.0685 
     76 H76       -78.7402   27.5425  -71.9386 H         1 UNK         0.1434 
     77 H77       -74.7737   28.3277  -70.5446 H         1 UNK         0.1329 
     78 H78       -76.8787   31.2803  -72.8525 H         1 UNK         0.1335 
     79 H79       -74.6407   31.5667  -70.7992 H         1 UNK         0.0680 
     80 H80       -73.5983   30.2435  -71.2782 H         1 UNK         0.0680 
     81 H81       -72.0643   32.0044  -71.8188 H         1 UNK         0.1032 
     82 H82       -72.3490   33.3129  -72.9322 H         1 UNK         0.1032 
     83 H83       -71.7078   31.8796  -74.8484 H         1 UNK         0.0461 
     84 H84       -67.9613   31.8265  -74.0640 H         1 UNK         0.3453 
     85 H85       -69.0252   30.4854  -74.4178 H         1 UNK         0.3453 
     86 H86       -71.8370   29.7242  -74.7119 H         1 UNK         0.2984 
     87 H87       -70.2775   27.2943  -72.9957 H         1 UNK         0.0554 
     88 H88       -72.2475   26.1006  -72.0793 H         1 UNK         0.0847 
     89 H89       -73.1879   27.5888  -72.0825 H         1 UNK         0.0847 
     90 H90       -71.8100   27.4155  -71.0032 H         1 UNK         0.0847 
     91 H91       -72.8129   27.2630  -74.4302 H         1 UNK         0.3141 
     92 H92       -71.5627   27.8220  -77.6181 H         1 UNK         0.0743 
     93 H93       -72.3442   25.0731  -76.5063 H         1 UNK         0.0784 
     94 H94       -72.5611   25.5879  -78.1792 H         1 UNK         0.0784 
     95 H95       -70.9457   25.4343  -77.5056 H         1 UNK         0.0784 
     96 H96       -74.1058   26.9152  -76.6751 H         1 UNK         0.3213 
     97 H97       -75.3817   29.4327  -75.2048 H         1 UNK         0.0855 
     98 H98       -75.1379   31.3796  -76.6815 H         1 UNK         0.0814 
     99 H99       -76.7665   30.7422  -76.8225 H         1 UNK         0.0814 
    100 H100      -75.5809   30.4296  -78.0918 H         1 UNK         0.0814 
    101 H101      -76.7074   27.7783  -75.7698 H         1 UNK         0.3105 
    102 H102      -78.3088   26.6055  -77.7759 H         1 UNK         0.0547 
    103 H103      -77.2066   25.7293  -79.7979 H         1 UNK         0.0837 
    104 H104      -75.9748   24.9235  -78.8398 H         1 UNK         0.0837 
    105 H105      -77.6467   24.3762  -78.7699 H         1 UNK         0.0837 
    106 H106      -78.1104   25.5038  -75.8762 H         1 UNK         0.3020 
    107 H107      -75.4136   23.8615  -74.1831 H         1 UNK         0.1245 
    108 H108      -77.1316   26.2329  -73.3587 H         1 UNK         0.0781 
    109 H109      -75.4332   26.4482  -73.6825 H         1 UNK         0.0781 
    110 H110      -76.2615   26.3926  -69.6110 H         1 UNK         0.0836 
    111 H111      -77.6934   25.9586  -70.5060 H         1 UNK         0.0836 
    112 H112      -78.3372   24.1546  -74.6508 H         1 UNK         0.3022 
    113 H113      -78.9217   20.9526  -73.1437 H         1 UNK         0.0747 
    114 H114      -80.9606   22.2115  -72.5652 H         1 UNK         0.0793 
    115 H115      -79.6110   22.8455  -71.6374 H         1 UNK         0.0793 
    116 H116      -80.2108   23.7345  -73.0312 H         1 UNK         0.0793 
    117 H117      -80.3794   22.4324  -75.1254 H         1 UNK         0.3047 
    118 H118      -78.9801   20.8552  -77.9827 H         1 UNK         0.0822 
    119 H119      -81.3592   20.2482  -78.3993 H         1 UNK         0.0807 
    120 H120      -81.7250   20.4467  -76.6861 H         1 UNK         0.0807 
    121 H121      -80.6194   19.1893  -77.2095 H         1 UNK         0.0807 
    122 H122      -79.5064   22.9235  -78.4151 H         1 UNK         0.2946 
    123 H123      -80.0634   25.0516  -78.0887 H         1 UNK         0.1144 
    124 H124      -81.7929   24.1747  -79.6791 H         1 UNK         0.0793 
    125 H125      -82.0477   25.8778  -79.3422 H         1 UNK         0.0793 
    126 H126      -83.0693   24.6620  -78.5734 H         1 UNK         0.0793 
    127 H127      -82.2659   26.3184  -76.8898 H         1 UNK         0.2896 
@<TRIPOS>BOND
     1    1    2 1    
     2    1   67 1    
     3    1   68 1    
     4    1   69 1    
     5    2    3 2    
     6    2    4 am   BACKBONE|DICT|INTERRES
     7    4    5 1    
     8    4   70 1    
     9    5    6 1    
    10    5   65 1    
    11    5   71 1    
    12    6    7 1    
    13    6   72 1    
    14    6   73 1    
    15    7    8 1    
    16    8    9 1    
    17    8   74 1    
    18    8   75 1    
    19    9   10 ar   
    20    9   14 ar   
    21   10   11 ar   
    22   10   76 1    
    23   11   12 ar   
    24   11   48 1    
    25   12   13 ar   
    26   12   77 1    
    27   13   14 ar   
    28   13   15 1    
    29   14   78 1    
    30   15   16 1    
    31   15   79 1    
    32   15   80 1    
    33   16   17 1    
    34   17   18 1    
    35   17   81 1    
    36   17   82 1    
    37   18   19 1    
    38   18   22 1    
    39   18   83 1    
    40   19   20 am   BACKBONE|DICT|INTERRES
    41   19   21 2    
    42   20   84 1    
    43   20   85 1    
    44   22   23 am   BACKBONE|DICT|INTERRES
    45   22   86 1    
    46   23   24 2    
    47   23   25 1    
    48   25   26 1    
    49   25   27 1    
    50   25   87 1    
    51   26   88 1    
    52   26   89 1    
    53   26   90 1    
    54   27   28 am   BACKBONE|DICT|INTERRES
    55   27   91 1    
    56   28   29 2    
    57   28   30 1    
    58   30   31 1    
    59   30   32 1    
    60   30   92 1    
    61   31   93 1    
    62   31   94 1    
    63   31   95 1    
    64   32   33 am   BACKBONE|DICT|INTERRES
    65   32   96 1    
    66   33   34 2    
    67   33   35 1    
    68   35   36 1    
    69   35   37 1    
    70   35   97 1    
    71   36   98 1    
    72   36   99 1    
    73   36  100 1    
    74   37   38 am   BACKBONE|DICT|INTERRES
    75   37  101 1    
    76   38   39 2    
    77   38   40 1    
    78   40   41 1    
    79   40   42 1    
    80   40  102 1    
    81   41  103 1    
    82   41  104 1    
    83   41  105 1    
    84   42   43 am   BACKBONE|DICT|INTERRES
    85   42  106 1    
    86   43   44 2    
    87   43   45 1    
    88   45   46 1    
    89   45   49 1    
    90   45  107 1    
    91   46   47 1    
    92   46  108 1    
    93   46  109 1    
    94   47   48 1    
    95   48  110 1    
    96   48  111 1    
    97   49   50 am   BACKBONE|DICT|INTERRES
    98   49  112 1    
    99   50   51 2    
   100   50   52 1    
   101   52   53 1    
   102   52   54 1    
   103   52  113 1    
   104   53  114 1    
   105   53  115 1    
   106   53  116 1    
   107   54   55 am   BACKBONE|DICT|INTERRES
   108   54  117 1    
   109   55   56 2    
   110   55   57 1    
   111   57   58 1    
   112   57   59 1    
   113   57  118 1    
   114   58  119 1    
   115   58  120 1    
   116   58  121 1    
   117   59   60 am   BACKBONE|DICT|INTERRES
   118   59  122 1    
   119   60   61 2    
   120   60   62 1    
   121   62   63 1    
   122   62   64 1    
   123   62  123 1    
   124   63  124 1    
   125   63  125 1    
   126   63  126 1    
   127   64   65 am   BACKBONE|DICT|INTERRES
   128   64  127 1    
   129   65   66 2    
@<TRIPOS>SUBSTRUCTURE
     1 UNK         1 GROUP             0       ****    0 ROOT    
