@<TRIPOS>MOLECULE
3R135
127   129    1
SMALL
USER_CHARGES


@<TRIPOS>ATOM
      1 CA        -83.9546   25.7223  -69.7896 C.3       0 UNK        -0.1998 
      2 C         -83.1569   26.0967  -71.0295 C.2       0 UNK         0.4909 
      3 O         -83.6443   26.8586  -71.8649 O.2       0 UNK        -0.5240 
      4 N         -81.9341   25.5647  -71.1578 N.am      1 UNK        -0.4739 
      5 CA        -81.0203   25.8256  -72.2799 C.3       1 UNK         0.0864 
      6 C6        -79.5459   25.5231  -71.9070 C.3       11 UNK        -0.0881 
      7 S7        -78.9673   26.5017  -70.4760 S.3       11 UNK        -0.2682 
      8 C8        -77.2917   27.0172  -71.0020 C.3       11 UNK         0.0289 
      9 C9        -77.2104   28.1580  -72.0217 C.ar      11 UNK        -0.0687 
     10 C10       -78.3411   28.7466  -72.6064 C.ar      11 UNK        -0.0823 
     11 C11       -78.2062   29.7527  -73.5674 C.ar      11 UNK        -0.0830 
     12 C12       -76.9340   30.2201  -73.9022 C.ar      11 UNK        -0.1021 
     13 C13       -75.7962   29.6346  -73.3443 C.ar      11 UNK        -0.0753 
     14 C14       -75.9414   28.6105  -72.4042 C.ar      11 UNK        -0.0933 
     15 C15       -74.4175   30.0603  -73.8219 C.3       11 UNK         0.0166 
     16 S16       -73.4935   30.9809  -72.5597 S.3       11 UNK        -0.2615 
     17 C17       -72.1799   31.8134  -73.5300 C.3       11 UNK        -0.0865 
     18 CA        -71.6085   31.0600  -74.7760 C.3       10 UNK         0.0862 
     19 C         -70.5972   31.9335  -75.5814 C.2       10 UNK         0.5551 
     20 N         -69.5870   31.3561  -76.2211 N.am      10 UNK        -0.7319 
     21 O         -70.7443   33.1510  -75.6564 O.2       10 UNK        -0.5018 
     22 N         -71.1280   29.6951  -74.4846 N.am      10 UNK        -0.4509 
     23 C         -70.1499   29.3763  -73.6249 C.2       10 UNK         0.4899 
     24 O         -69.5604   30.2017  -72.9257 O.2       10 UNK        -0.4839 
     25 CA        -69.7154   27.8976  -73.5680 C.3       9 UNK         0.0222 
     26 CB        -69.0145   27.5360  -72.2407 C.3       9 UNK        -0.1966 
     27 N         -70.7771   26.9298  -73.8685 N.am      9 UNK        -0.4218 
     28 C         -71.9117   26.7069  -73.1917 C.2       9 UNK         0.5020 
     29 O         -72.2874   27.3810  -72.2318 O.2       9 UNK        -0.5274 
     30 CA        -72.7494   25.5007  -73.6661 C.3       8 UNK         0.0270 
     31 CB        -73.9673   25.2274  -72.7658 C.3       8 UNK        -0.1976 
     32 N         -73.1988   25.6201  -75.0566 N.am      8 UNK        -0.4313 
     33 C         -72.4233   25.4945  -76.1417 C.2       8 UNK         0.5041 
     34 O         -71.2169   25.2462  -76.0900 O.2       8 UNK        -0.5577 
     35 CA        -73.0869   25.7103  -77.5119 C.3       7 UNK         0.0284 
     36 CB        -73.7713   24.4207  -77.9928 C.3       7 UNK        -0.1958 
     37 N         -74.0504   26.8137  -77.5369 N.am      7 UNK        -0.4454 
     38 C         -73.7774   28.0999  -77.2809 C.2       7 UNK         0.5089 
     39 O         -72.6675   28.5141  -76.9438 O.2       7 UNK        -0.5125 
     40 CA        -74.9450   29.0968  -77.3911 C.3       6 UNK         0.0408 
     41 CB        -75.2302   29.4819  -78.8554 C.3       6 UNK        -0.1791 
     42 N         -76.1510   28.6529  -76.6786 N.am      6 UNK        -0.4762 
     43 C         -76.9996   27.6621  -76.9888 C.2       6 UNK         0.5007 
     44 O         -76.9531   27.0154  -78.0379 O.2       6 UNK        -0.5032 
     45 CA        -78.0245   27.2903  -75.8935 C.3       5 UNK         0.0783 
     46 C46       -79.3966   28.0014  -76.0552 C.3       11 UNK        -0.0857 
     47 S47       -79.3411   29.8310  -76.0883 S.3       11 UNK        -0.2512 
     48 C48       -79.4236   30.2721  -74.3169 C.3       11 UNK         0.0225 
     49 N         -78.1756   25.8361  -75.7571 N.am      5 UNK        -0.4615 
     50 C         -77.1696   24.9879  -75.4924 C.2       4 UNK         0.5053 
     51 O         -76.0135   25.3590  -75.2869 O.2       4 UNK        -0.5105 
     52 CA        -77.4738   23.4802  -75.4258 C.3       4 UNK         0.0263 
     53 CB        -77.3791   22.9666  -73.9808 C.3       4 UNK        -0.1981 
     54 N         -78.7769   23.0981  -75.9678 N.am      4 UNK        -0.4224 
     55 C         -79.1009   23.0172  -77.2627 C.2       3 UNK         0.4895 
     56 O         -78.3200   23.2846  -78.1758 O.2       3 UNK        -0.5091 
     57 CA        -80.5341   22.5623  -77.6132 C.3       3 UNK         0.0250 
     58 CB        -80.5782   21.0446  -77.8794 C.3       3 UNK        -0.1996 
     59 N         -81.5772   22.9691  -76.6545 N.am      3 UNK        -0.4254 
     60 C         -81.7402   22.5967  -75.3759 C.2       2 UNK         0.5004 
     61 O         -81.0145   21.7919  -74.7884 O.2       2 UNK        -0.5226 
     62 CA        -82.8585   23.3046  -74.5931 C.3       2 UNK         0.0269 
     63 CB        -83.8838   22.2904  -74.0596 C.3       2 UNK        -0.1926 
     64 N         -82.3277   24.0904  -73.4736 N.am      2 UNK        -0.4687 
     65 C         -81.4261   25.0809  -73.5723 C.2       1 UNK         0.5165 
     66 O         -80.9176   25.4232  -74.6397 O.2       1 UNK        -0.5079 
     67 H67       -84.8853   25.2330  -70.0755 H         1 UNK         0.0900 
     68 H68       -84.2012   26.6170  -69.2186 H         1 UNK         0.0900 
     69 H69       -83.4018   25.0462  -69.1376 H         1 UNK         0.0900 
     70 H70       -81.5723   24.9638  -70.4303 H         1 UNK         0.2959 
     71 H71       -81.0914   26.8879  -72.5217 H         1 UNK         0.1079 
     72 H72       -79.4223   24.4661  -71.6655 H         1 UNK         0.0837 
     73 H73       -78.8908   25.7245  -72.7572 H         1 UNK         0.0837 
     74 H74       -76.7677   26.1458  -71.3976 H         1 UNK         0.0685 
     75 H75       -76.7458   27.3216  -70.1079 H         1 UNK         0.0685 
     76 H76       -79.3317   28.4059  -72.3500 H         1 UNK         0.1434 
     77 H77       -76.8339   31.0008  -74.6449 H         1 UNK         0.1329 
     78 H78       -75.0553   28.1604  -71.9761 H         1 UNK         0.1335 
     79 H79       -74.5195   30.6951  -74.7012 H         1 UNK         0.0680 
     80 H80       -73.8511   29.1786  -74.1244 H         1 UNK         0.0680 
     81 H81       -71.3727   32.0696  -72.8427 H         1 UNK         0.1032 
     82 H82       -72.5985   32.7708  -73.8451 H         1 UNK         0.1032 
     83 H83       -72.4253   30.9244  -75.4825 H         1 UNK         0.0461 
     84 H84       -68.9443   31.9260  -76.7480 H         1 UNK         0.3453 
     85 H85       -69.4686   30.3566  -76.1892 H         1 UNK         0.3453 
     86 H86       -71.5311   28.9655  -75.0592 H         1 UNK         0.2984 
     87 H87       -68.9793   27.7790  -74.3640 H         1 UNK         0.0554 
     88 H88       -68.1268   28.1500  -72.0833 H         1 UNK         0.0847 
     89 H89       -68.6898   26.4959  -72.2324 H         1 UNK         0.0847 
     90 H90       -69.6714   27.6897  -71.3840 H         1 UNK         0.0847 
     91 H91       -70.6237   26.3357  -74.6825 H         1 UNK         0.3141 
     92 H92       -72.0977   24.6274  -73.5959 H         1 UNK         0.0743 
     93 H93       -73.6840   25.1768  -71.7137 H         1 UNK         0.0784 
     94 H94       -74.7247   26.0032  -72.8695 H         1 UNK         0.0784 
     95 H95       -74.4293   24.2746  -73.0186 H         1 UNK         0.0784 
     96 H96       -74.1988   25.7592  -75.1955 H         1 UNK         0.3213 
     97 H97       -72.2935   25.9585  -78.2200 H         1 UNK         0.0855 
     98 H98       -74.6022   24.1375  -77.3459 H         1 UNK         0.0814 
     99 H99       -73.0682   23.5867  -78.0047 H         1 UNK         0.0814 
    100 H100      -74.1590   24.5308  -79.0057 H         1 UNK         0.0814 
    101 H101      -75.0100   26.5859  -77.7786 H         1 UNK         0.3105 
    102 H102      -74.6260   30.0093  -76.8878 H         1 UNK         0.0547 
    103 H103      -75.4924   28.6196  -79.4684 H         1 UNK         0.0837 
    104 H104      -76.0450   30.2026  -78.9241 H         1 UNK         0.0837 
    105 H105      -74.3518   29.9411  -79.3104 H         1 UNK         0.0837 
    106 H106      -76.2922   29.1010  -75.7830 H         1 UNK         0.3020 
    107 H107      -77.5894   27.5980  -74.9454 H         1 UNK         0.1245 
    108 H108      -80.0597   27.7153  -75.2398 H         1 UNK         0.0781 
    109 H109      -79.8847   27.6623  -76.9704 H         1 UNK         0.0781 
    110 H110      -79.4695   31.3577  -74.2206 H         1 UNK         0.0836 
    111 H111      -80.3495   29.8843  -73.8891 H         1 UNK         0.0836 
    112 H112      -79.1138   25.4673  -75.8492 H         1 UNK         0.3022 
    113 H113      -76.7022   22.9785  -76.0134 H         1 UNK         0.0747 
    114 H114      -76.4246   23.2310  -73.5271 H         1 UNK         0.0793 
    115 H115      -77.4625   21.8804  -73.9424 H         1 UNK         0.0793 
    116 H116      -78.1666   23.3819  -73.3543 H         1 UNK         0.0793 
    117 H117      -79.4835   22.7967  -75.3025 H         1 UNK         0.3047 
    118 H118      -80.7891   23.0634  -78.5486 H         1 UNK         0.0822 
    119 H119      -79.8786   20.7687  -78.6697 H         1 UNK         0.0807 
    120 H120      -81.5702   20.7265  -78.2000 H         1 UNK         0.0807 
    121 H121      -80.3092   20.4659  -76.9953 H         1 UNK         0.0807 
    122 H122      -82.2049   23.6789  -77.0071 H         1 UNK         0.2946 
    123 H123      -83.3781   23.9946  -75.2616 H         1 UNK         0.1144 
    124 H124      -84.3056   21.6979  -74.8727 H         1 UNK         0.0793 
    125 H125      -84.7140   22.7894  -73.5593 H         1 UNK         0.0793 
    126 H126      -83.4326   21.5950  -73.3503 H         1 UNK         0.0793 
    127 H127      -82.6782   23.8654  -72.5543 H         1 UNK         0.2896 
@<TRIPOS>BOND
     1    1    2 1    
     2    1   67 1    
     3    1   68 1    
     4    1   69 1    
     5    2    3 2    
     6    2    4 am   BACKBONE|DICT|INTERRES
     7    4    5 1    
     8    4   70 1    
     9    5    6 1    
    10    5   65 1    
    11    5   71 1    
    12    6    7 1    
    13    6   72 1    
    14    6   73 1    
    15    7    8 1    
    16    8    9 1    
    17    8   74 1    
    18    8   75 1    
    19    9   10 ar   
    20    9   14 ar   
    21   10   11 ar   
    22   10   76 1    
    23   11   12 ar   
    24   11   48 1    
    25   12   13 ar   
    26   12   77 1    
    27   13   14 ar   
    28   13   15 1    
    29   14   78 1    
    30   15   16 1    
    31   15   79 1    
    32   15   80 1    
    33   16   17 1    
    34   17   18 1    
    35   17   81 1    
    36   17   82 1    
    37   18   19 1    
    38   18   22 1    
    39   18   83 1    
    40   19   20 am   BACKBONE|DICT|INTERRES
    41   19   21 2    
    42   20   84 1    
    43   20   85 1    
    44   22   23 am   BACKBONE|DICT|INTERRES
    45   22   86 1    
    46   23   24 2    
    47   23   25 1    
    48   25   26 1    
    49   25   27 1    
    50   25   87 1    
    51   26   88 1    
    52   26   89 1    
    53   26   90 1    
    54   27   28 am   BACKBONE|DICT|INTERRES
    55   27   91 1    
    56   28   29 2    
    57   28   30 1    
    58   30   31 1    
    59   30   32 1    
    60   30   92 1    
    61   31   93 1    
    62   31   94 1    
    63   31   95 1    
    64   32   33 am   BACKBONE|DICT|INTERRES
    65   32   96 1    
    66   33   34 2    
    67   33   35 1    
    68   35   36 1    
    69   35   37 1    
    70   35   97 1    
    71   36   98 1    
    72   36   99 1    
    73   36  100 1    
    74   37   38 am   BACKBONE|DICT|INTERRES
    75   37  101 1    
    76   38   39 2    
    77   38   40 1    
    78   40   41 1    
    79   40   42 1    
    80   40  102 1    
    81   41  103 1    
    82   41  104 1    
    83   41  105 1    
    84   42   43 am   BACKBONE|DICT|INTERRES
    85   42  106 1    
    86   43   44 2    
    87   43   45 1    
    88   45   46 1    
    89   45   49 1    
    90   45  107 1    
    91   46   47 1    
    92   46  108 1    
    93   46  109 1    
    94   47   48 1    
    95   48  110 1    
    96   48  111 1    
    97   49   50 am   BACKBONE|DICT|INTERRES
    98   49  112 1    
    99   50   51 2    
   100   50   52 1    
   101   52   53 1    
   102   52   54 1    
   103   52  113 1    
   104   53  114 1    
   105   53  115 1    
   106   53  116 1    
   107   54   55 am   BACKBONE|DICT|INTERRES
   108   54  117 1    
   109   55   56 2    
   110   55   57 1    
   111   57   58 1    
   112   57   59 1    
   113   57  118 1    
   114   58  119 1    
   115   58  120 1    
   116   58  121 1    
   117   59   60 am   BACKBONE|DICT|INTERRES
   118   59  122 1    
   119   60   61 2    
   120   60   62 1    
   121   62   63 1    
   122   62   64 1    
   123   62  123 1    
   124   63  124 1    
   125   63  125 1    
   126   63  126 1    
   127   64   65 am   BACKBONE|DICT|INTERRES
   128   64  127 1    
   129   65   66 2    
@<TRIPOS>SUBSTRUCTURE
     1 UNK         1 GROUP             0       ****    0 ROOT    
