@<TRIPOS>MOLECULE
3R135
127   129    1
SMALL
USER_CHARGES


@<TRIPOS>ATOM
      1 CA        -80.6935   25.5500  -71.8711 C.3       0 UNK        -0.1998 
      2 C         -80.7960   25.7381  -73.3760 C.2       0 UNK         0.4909 
      3 O         -81.2282   24.8202  -74.0763 O.2       0 UNK        -0.5240 
      4 N         -80.4039   26.9226  -73.8679 N.am      1 UNK        -0.4739 
      5 CA        -80.4655   27.3413  -75.2721 C.3       1 UNK         0.0864 
      6 C6        -80.0064   28.8137  -75.4594 C.3       11 UNK        -0.0881 
      7 S7        -78.2465   29.1351  -75.0731 S.3       11 UNK        -0.2682 
      8 C8        -78.3035   30.0039  -73.4742 C.3       11 UNK         0.0289 
      9 C9        -77.3369   29.3550  -72.4975 C.ar      11 UNK        -0.0687 
     10 C10       -77.7552   28.2702  -71.7267 C.ar      11 UNK        -0.0823 
     11 C11       -76.8592   27.6022  -70.8907 C.ar      11 UNK        -0.0830 
     12 C12       -75.5436   28.0616  -70.7816 C.ar      11 UNK        -0.1021 
     13 C13       -75.1167   29.1623  -71.5322 C.ar      11 UNK        -0.0753 
     14 C14       -76.0163   29.8012  -72.3928 C.ar      11 UNK        -0.0933 
     15 C15       -73.6755   29.6382  -71.4466 C.3       11 UNK         0.0166 
     16 S16       -73.5403   31.1707  -70.4768 S.3       11 UNK        -0.2615 
     17 C17       -71.7325   31.4267  -70.4685 C.3       11 UNK        -0.0865 
     18 CA        -71.2755   32.6164  -71.3656 C.3       10 UNK         0.0862 
     19 C         -69.7792   32.9974  -71.1348 C.2       10 UNK         0.5551 
     20 N         -69.0552   33.4712  -72.1417 N.am      10 UNK        -0.7319 
     21 O         -69.2720   32.8953  -70.0201 O.2       10 UNK        -0.5018 
     22 N         -71.6598   32.4657  -72.7839 N.am      10 UNK        -0.4509 
     23 C         -71.2463   31.4990  -73.6127 C.2       10 UNK         0.4899 
     24 O         -70.4840   30.5851  -73.2896 O.2       10 UNK        -0.4839 
     25 CA        -71.7424   31.5891  -75.0626 C.3       9 UNK         0.0222 
     26 CB        -70.7176   32.3335  -75.9345 C.3       9 UNK        -0.1966 
     27 N         -71.9390   30.2419  -75.5968 N.am      9 UNK        -0.4218 
     28 C         -73.0912   29.5653  -75.5353 C.2       9 UNK         0.5020 
     29 O         -74.1493   30.0457  -75.1243 O.2       9 UNK        -0.5274 
     30 CA        -73.0267   28.0864  -75.9587 C.3       8 UNK         0.0270 
     31 CB        -72.6154   27.2158  -74.7594 C.3       8 UNK        -0.1976 
     32 N         -74.2974   27.5896  -76.4929 N.am      8 UNK        -0.4313 
     33 C         -74.8895   28.0363  -77.6106 C.2       8 UNK         0.5041 
     34 O         -74.3838   28.8766  -78.3590 O.2       8 UNK        -0.5577 
     35 CA        -76.2702   27.4378  -77.9536 C.3       7 UNK         0.0284 
     36 CB        -76.6885   27.6731  -79.4214 C.3       7 UNK        -0.1958 
     37 N         -76.3966   26.0226  -77.5877 N.am      7 UNK        -0.4454 
     38 C         -75.6727   24.9954  -78.0569 C.2       7 UNK         0.5089 
     39 O         -74.8108   25.1075  -78.9301 O.2       7 UNK        -0.5125 
     40 CA        -75.9608   23.6048  -77.4487 C.3       6 UNK         0.0408 
     41 CB        -74.7270   22.6800  -77.5088 C.3       6 UNK        -0.1791 
     42 N         -76.5026   23.6227  -76.0814 N.am      6 UNK        -0.4762 
     43 C         -75.9624   24.2039  -74.9967 C.2       6 UNK         0.5007 
     44 O         -74.9499   24.9034  -75.0411 O.2       6 UNK        -0.5032 
     45 CA        -76.6402   23.9450  -73.6351 C.3       5 UNK         0.0783 
     46 C46       -76.7538   25.2228  -72.7640 C.3       11 UNK        -0.0857 
     47 S47       -76.8035   24.8057  -70.9824 S.3       11 UNK        -0.2512 
     48 C48       -77.3135   26.3530  -70.1518 C.3       11 UNK         0.0225 
     49 N         -77.9425   23.2801  -73.7928 N.am      5 UNK        -0.4615 
     50 C         -78.2129   22.0444  -73.3535 C.2       4 UNK         0.5053 
     51 O         -77.3801   21.3143  -72.8154 O.2       4 UNK        -0.5105 
     52 CA        -79.6416   21.5121  -73.5322 C.3       4 UNK         0.0263 
     53 CB        -80.4487   21.6924  -72.2366 C.3       4 UNK        -0.1981 
     54 N         -80.3677   22.1394  -74.6414 N.am      4 UNK        -0.4224 
     55 C         -80.5974   21.5311  -75.8131 C.2       3 UNK         0.4895 
     56 O         -80.1100   20.4465  -76.1345 O.2       3 UNK        -0.5091 
     57 CA        -81.5645   22.2308  -76.7785 C.3       3 UNK         0.0250 
     58 CB        -82.9755   22.3424  -76.1739 C.3       3 UNK        -0.1996 
     59 N         -81.0978   23.5541  -77.1830 N.am      3 UNK        -0.4254 
     60 C         -80.1167   23.7798  -78.0678 C.2       2 UNK         0.5004 
     61 O         -79.4624   22.8889  -78.6091 O.2       2 UNK        -0.5226 
     62 CA        -79.8282   25.2458  -78.4399 C.3       2 UNK         0.0269 
     63 CB        -80.4616   25.5900  -79.7976 C.3       2 UNK        -0.1926 
     64 N         -80.2932   26.2097  -77.4379 N.am      2 UNK        -0.4687 
     65 C         -79.7401   26.3688  -76.2287 C.2       1 UNK         0.5165 
     66 O         -78.7209   25.7755  -75.8645 O.2       1 UNK        -0.5079 
     67 H67       -81.5621   25.0057  -71.5014 H         1 UNK         0.0900 
     68 H68       -79.8006   24.9777  -71.6244 H         1 UNK         0.0900 
     69 H69       -80.6533   26.5025  -71.3443 H         1 UNK         0.0900 
     70 H70       -80.0329   27.6184  -73.2418 H         1 UNK         0.2959 
     71 H71       -81.5250   27.3010  -75.5343 H         1 UNK         0.1079 
     72 H72       -80.6381   29.4757  -74.8656 H         1 UNK         0.0837 
     73 H73       -80.1740   29.1224  -76.4930 H         1 UNK         0.0837 
     74 H74       -79.3118   29.9943  -73.0589 H         1 UNK         0.0685 
     75 H75       -78.0435   31.0524  -73.6273 H         1 UNK         0.0685 
     76 H76       -78.7703   27.9167  -71.8092 H         1 UNK         0.1434 
     77 H77       -74.8476   27.5441  -70.1354 H         1 UNK         0.1329 
     78 H78       -75.6800   30.6337  -72.9958 H         1 UNK         0.1335 
     79 H79       -73.0455   28.8682  -70.9987 H         1 UNK         0.0680 
     80 H80       -73.2910   29.8056  -72.4522 H         1 UNK         0.0680 
     81 H81       -71.4523   31.6084  -69.4294 H         1 UNK         0.1032 
     82 H82       -71.2178   30.5073  -70.7513 H         1 UNK         0.1032 
     83 H83       -71.8233   33.4943  -71.0215 H         1 UNK         0.0461 
     84 H84       -68.0931   33.7257  -71.9819 H         1 UNK         0.3453 
     85 H85       -69.4604   33.5735  -73.0577 H         1 UNK         0.3453 
     86 H86       -72.2734   33.1833  -73.1429 H         1 UNK         0.2984 
     87 H87       -72.6843   32.1416  -75.0886 H         1 UNK         0.0554 
     88 H88       -70.5735   33.3558  -75.5828 H         1 UNK         0.0847 
     89 H89       -71.0496   32.3940  -76.9712 H         1 UNK         0.0847 
     90 H90       -69.7424   31.8444  -75.9231 H         1 UNK         0.0847 
     91 H91       -71.1029   29.7514  -75.8814 H         1 UNK         0.3141 
     92 H92       -72.2751   27.9819  -76.7438 H         1 UNK         0.0743 
     93 H93       -71.6714   27.5538  -74.3296 H         1 UNK         0.0784 
     94 H94       -72.4823   26.1742  -75.0525 H         1 UNK         0.0784 
     95 H95       -73.3644   27.2473  -73.9663 H         1 UNK         0.0784 
     96 H96       -74.7589   26.8649  -75.9549 H         1 UNK         0.3213 
     97 H97       -76.9859   27.9710  -77.3305 H         1 UNK         0.0855 
     98 H98       -75.9939   27.2080  -80.1213 H         1 UNK         0.0814 
     99 H99       -76.7152   28.7386  -79.6525 H         1 UNK         0.0814 
    100 H100      -77.6838   27.2785  -79.6213 H         1 UNK         0.0814 
    101 H101      -77.0795   25.8209  -76.8597 H         1 UNK         0.3105 
    102 H102      -76.7356   23.1606  -78.0745 H         1 UNK         0.0547 
    103 H103      -74.9495   21.6932  -77.1033 H         1 UNK         0.0837 
    104 H104      -73.8881   23.0928  -76.9473 H         1 UNK         0.0837 
    105 H105      -74.3914   22.5355  -78.5364 H         1 UNK         0.0837 
    106 H106      -77.3506   23.0916  -75.9428 H         1 UNK         0.3020 
    107 H107      -75.9371   23.2749  -73.1352 H         1 UNK         0.1245 
    108 H108      -77.6355   25.7994  -73.0462 H         1 UNK         0.0781 
    109 H109      -75.8981   25.8857  -72.9061 H         1 UNK         0.0781 
    110 H110      -76.9089   26.3586  -69.1387 H         1 UNK         0.0836 
    111 H111      -78.3979   26.3526  -70.0377 H         1 UNK         0.0836 
    112 H112      -78.6662   23.8226  -74.2454 H         1 UNK         0.3022 
    113 H113      -79.5537   20.4370  -73.7043 H         1 UNK         0.0747 
    114 H114      -81.4292   21.2223  -72.3146 H         1 UNK         0.0793 
    115 H115      -79.9373   21.2349  -71.3884 H         1 UNK         0.0793 
    116 H116      -80.6019   22.7426  -71.9968 H         1 UNK         0.0793 
    117 H117      -80.7884   23.0509  -74.4656 H         1 UNK         0.3047 
    118 H118      -81.6393   21.6091  -77.6738 H         1 UNK         0.0822 
    119 H119      -83.6884   22.7242  -76.9050 H         1 UNK         0.0807 
    120 H120      -83.0005   23.0047  -75.3076 H         1 UNK         0.0807 
    121 H121      -83.3392   21.3665  -75.8490 H         1 UNK         0.0807 
    122 H122      -81.5540   24.3477  -76.7569 H         1 UNK         0.2946 
    123 H123      -78.7482   25.3389  -78.5422 H         1 UNK         0.1144 
    124 H124      -80.2033   26.6014  -80.1119 H         1 UNK         0.0793 
    125 H125      -81.5492   25.5137  -79.7678 H         1 UNK         0.0793 
    126 H126      -80.1088   24.9117  -80.5760 H         1 UNK         0.0793 
    127 H127      -81.1186   26.7414  -77.6763 H         1 UNK         0.2896 
@<TRIPOS>BOND
     1    1    2 1    
     2    1   67 1    
     3    1   68 1    
     4    1   69 1    
     5    2    3 2    
     6    2    4 am   BACKBONE|DICT|INTERRES
     7    4    5 1    
     8    4   70 1    
     9    5    6 1    
    10    5   65 1    
    11    5   71 1    
    12    6    7 1    
    13    6   72 1    
    14    6   73 1    
    15    7    8 1    
    16    8    9 1    
    17    8   74 1    
    18    8   75 1    
    19    9   10 ar   
    20    9   14 ar   
    21   10   11 ar   
    22   10   76 1    
    23   11   12 ar   
    24   11   48 1    
    25   12   13 ar   
    26   12   77 1    
    27   13   14 ar   
    28   13   15 1    
    29   14   78 1    
    30   15   16 1    
    31   15   79 1    
    32   15   80 1    
    33   16   17 1    
    34   17   18 1    
    35   17   81 1    
    36   17   82 1    
    37   18   19 1    
    38   18   22 1    
    39   18   83 1    
    40   19   20 am   BACKBONE|DICT|INTERRES
    41   19   21 2    
    42   20   84 1    
    43   20   85 1    
    44   22   23 am   BACKBONE|DICT|INTERRES
    45   22   86 1    
    46   23   24 2    
    47   23   25 1    
    48   25   26 1    
    49   25   27 1    
    50   25   87 1    
    51   26   88 1    
    52   26   89 1    
    53   26   90 1    
    54   27   28 am   BACKBONE|DICT|INTERRES
    55   27   91 1    
    56   28   29 2    
    57   28   30 1    
    58   30   31 1    
    59   30   32 1    
    60   30   92 1    
    61   31   93 1    
    62   31   94 1    
    63   31   95 1    
    64   32   33 am   BACKBONE|DICT|INTERRES
    65   32   96 1    
    66   33   34 2    
    67   33   35 1    
    68   35   36 1    
    69   35   37 1    
    70   35   97 1    
    71   36   98 1    
    72   36   99 1    
    73   36  100 1    
    74   37   38 am   BACKBONE|DICT|INTERRES
    75   37  101 1    
    76   38   39 2    
    77   38   40 1    
    78   40   41 1    
    79   40   42 1    
    80   40  102 1    
    81   41  103 1    
    82   41  104 1    
    83   41  105 1    
    84   42   43 am   BACKBONE|DICT|INTERRES
    85   42  106 1    
    86   43   44 2    
    87   43   45 1    
    88   45   46 1    
    89   45   49 1    
    90   45  107 1    
    91   46   47 1    
    92   46  108 1    
    93   46  109 1    
    94   47   48 1    
    95   48  110 1    
    96   48  111 1    
    97   49   50 am   BACKBONE|DICT|INTERRES
    98   49  112 1    
    99   50   51 2    
   100   50   52 1    
   101   52   53 1    
   102   52   54 1    
   103   52  113 1    
   104   53  114 1    
   105   53  115 1    
   106   53  116 1    
   107   54   55 am   BACKBONE|DICT|INTERRES
   108   54  117 1    
   109   55   56 2    
   110   55   57 1    
   111   57   58 1    
   112   57   59 1    
   113   57  118 1    
   114   58  119 1    
   115   58  120 1    
   116   58  121 1    
   117   59   60 am   BACKBONE|DICT|INTERRES
   118   59  122 1    
   119   60   61 2    
   120   60   62 1    
   121   62   63 1    
   122   62   64 1    
   123   62  123 1    
   124   63  124 1    
   125   63  125 1    
   126   63  126 1    
   127   64   65 am   BACKBONE|DICT|INTERRES
   128   64  127 1    
   129   65   66 2    
@<TRIPOS>SUBSTRUCTURE
     1 UNK         1 GROUP             0       ****    0 ROOT    
