@<TRIPOS>MOLECULE
3R135
127   129    1
SMALL
USER_CHARGES


@<TRIPOS>ATOM
      1 CA        -84.2057   24.2369  -73.7160 C.3       0 UNK        -0.1998 
      2 C         -83.2912   25.4488  -73.8032 C.2       0 UNK         0.4909 
      3 O         -83.1956   26.0704  -74.8622 O.2       0 UNK        -0.5240 
      4 N         -82.6233   25.7965  -72.6949 N.am      1 UNK        -0.4739 
      5 CA        -81.7208   26.9487  -72.6025 C.3       1 UNK         0.0864 
      6 C6        -81.3786   27.2961  -71.1329 C.3       11 UNK        -0.0881 
      7 S7        -81.0185   29.0744  -70.9291 S.3       11 UNK        -0.2682 
      8 C8        -79.4988   29.0532  -69.9286 C.3       11 UNK         0.0289 
      9 C9        -78.2677   28.6704  -70.7380 C.ar      11 UNK        -0.0687 
     10 C10       -77.7141   27.3928  -70.6196 C.ar      11 UNK        -0.0823 
     11 C11       -76.5469   27.0556  -71.3116 C.ar      11 UNK        -0.0830 
     12 C12       -75.9328   28.0081  -72.1309 C.ar      11 UNK        -0.1021 
     13 C13       -76.4776   29.2890  -72.2595 C.ar      11 UNK        -0.0753 
     14 C14       -77.6483   29.6122  -71.5654 C.ar      11 UNK        -0.0933 
     15 C15       -75.7981   30.3310  -73.1351 C.3       11 UNK         0.0166 
     16 S16       -74.7740   31.4553  -72.1394 S.3       11 UNK        -0.2615 
     17 C17       -74.3982   32.7653  -73.3585 C.3       11 UNK        -0.0865 
     18 CA        -72.8925   33.0991  -73.5772 C.3       10 UNK         0.0862 
     19 C         -72.1464   33.6003  -72.3007 C.2       10 UNK         0.5551 
     20 N         -70.8590   33.3255  -72.1336 N.am      10 UNK        -0.7319 
     21 O         -72.7285   34.2997  -71.4746 O.2       10 UNK        -0.5018 
     22 N         -72.1872   32.1274  -74.4364 N.am      10 UNK        -0.4509 
     23 C         -71.7126   30.9187  -74.1092 C.2       10 UNK         0.4899 
     24 O         -71.7824   30.4122  -72.9884 O.2       10 UNK        -0.4839 
     25 CA        -70.9606   30.1828  -75.2297 C.3       9 UNK         0.0222 
     26 CB        -69.5102   30.6875  -75.3231 C.3       9 UNK        -0.1966 
     27 N         -70.9431   28.7416  -74.9832 N.am      9 UNK        -0.4218 
     28 C         -71.9137   27.8968  -75.3459 C.2       9 UNK         0.5020 
     29 O         -72.9068   28.2198  -76.0024 O.2       9 UNK        -0.5274 
     30 CA        -71.7660   26.4488  -74.8536 C.3       8 UNK         0.0270 
     31 CB        -72.6617   26.2088  -73.6296 C.3       8 UNK        -0.1976 
     32 N         -72.1144   25.4883  -75.9003 N.am      8 UNK        -0.4313 
     33 C         -71.3531   25.2175  -76.9683 C.2       8 UNK         0.5041 
     34 O         -70.2524   25.7336  -77.1699 O.2       8 UNK        -0.5577 
     35 CA        -71.8837   24.1763  -77.9687 C.3       7 UNK         0.0284 
     36 CB        -71.1744   22.8275  -77.7633 C.3       7 UNK        -0.1958 
     37 N         -73.3303   23.9677  -77.8732 N.am      7 UNK        -0.4454 
     38 C         -74.2582   24.7242  -78.4684 C.2       7 UNK         0.5089 
     39 O         -73.9953   25.7106  -79.1566 O.2       7 UNK        -0.5125 
     40 CA        -75.7272   24.3000  -78.2881 C.3       6 UNK         0.0408 
     41 CB        -76.0402   23.0146  -79.0779 C.3       6 UNK        -0.1791 
     42 N         -76.1861   24.1898  -76.8973 N.am      6 UNK        -0.4762 
     43 C         -75.7909   23.3482  -75.9300 C.2       6 UNK         0.5007 
     44 O         -74.8593   22.5510  -76.0490 O.2       6 UNK        -0.5032 
     45 CA        -76.5925   23.3800  -74.6133 C.3       5 UNK         0.0783 
     46 C46       -76.1228   24.5296  -73.6938 C.3       11 UNK        -0.0857 
     47 S47       -76.8604   24.3986  -72.0341 S.3       11 UNK        -0.2512 
     48 C48       -75.9347   25.6752  -71.1277 C.3       11 UNK         0.0225 
     49 N         -78.0370   23.4183  -74.8620 N.am      5 UNK        -0.4615 
     50 C         -78.7407   22.3972  -75.3700 C.2       4 UNK         0.5053 
     51 O         -78.2596   21.2952  -75.6349 O.2       4 UNK        -0.5105 
     52 CA        -80.2315   22.6464  -75.6363 C.3       4 UNK         0.0263 
     53 CB        -81.0608   22.4020  -74.3662 C.3       4 UNK        -0.1981 
     54 N         -80.4687   23.9980  -76.1482 N.am      4 UNK        -0.4224 
     55 C         -80.2503   24.3572  -77.4226 C.2       3 UNK         0.4895 
     56 O         -79.9249   23.5668  -78.3089 O.2       3 UNK        -0.5091 
     57 CA        -80.4091   25.8452  -77.7812 C.3       3 UNK         0.0250 
     58 CB        -81.8266   26.1260  -78.3048 C.3       3 UNK        -0.1996 
     59 N         -80.1137   26.7490  -76.6679 N.am      3 UNK        -0.4254 
     60 C         -78.8932   26.9413  -76.1463 C.2       2 UNK         0.5004 
     61 O         -77.8762   26.3906  -76.5622 O.2       2 UNK        -0.5226 
     62 CA        -78.7926   27.8754  -74.9291 C.3       2 UNK         0.0269 
     63 CB        -78.5513   29.3203  -75.3913 C.3       2 UNK        -0.1926 
     64 N         -79.9718   27.8418  -74.0606 N.am      2 UNK        -0.4687 
     65 C         -80.4546   26.7469  -73.4590 C.2       1 UNK         0.5165 
     66 O         -79.9589   25.6228  -73.5802 O.2       1 UNK        -0.5079 
     67 H67       -85.2318   24.5555  -73.5351 H         1 UNK         0.0900 
     68 H68       -84.1861   23.6786  -74.6513 H         1 UNK         0.0900 
     69 H69       -83.9074   23.5641  -72.9121 H         1 UNK         0.0900 
     70 H70       -82.7093   25.2318  -71.8622 H         1 UNK         0.2959 
     71 H71       -82.2762   27.7881  -73.0286 H         1 UNK         0.1079 
     72 H72       -82.2306   27.0797  -70.4863 H         1 UNK         0.0837 
     73 H73       -80.5593   26.6806  -70.7570 H         1 UNK         0.0837 
     74 H74       -79.6318   28.3807  -69.0795 H         1 UNK         0.0685 
     75 H75       -79.3499   30.0470  -69.5036 H         1 UNK         0.0685 
     76 H76       -78.1802   26.6607  -69.9744 H         1 UNK         0.1434 
     77 H77       -75.0210   27.7641  -72.6553 H         1 UNK         0.1329 
     78 H78       -78.0667   30.6056  -71.6529 H         1 UNK         0.1335 
     79 H79       -75.1779   29.8535  -73.8960 H         1 UNK         0.0680 
     80 H80       -76.5535   30.9115  -73.6649 H         1 UNK         0.0680 
     81 H81       -74.8495   32.5120  -74.3186 H         1 UNK         0.1032 
     82 H82       -74.9226   33.6650  -73.0315 H         1 UNK         0.1032 
     83 H83       -72.8976   33.9938  -74.2010 H         1 UNK         0.0461 
     84 H84       -70.3812   33.6698  -71.3158 H         1 UNK         0.3453 
     85 H85       -70.3731   32.7466  -72.7988 H         1 UNK         0.3453 
     86 H86       -72.0266   32.4481  -75.3807 H         1 UNK         0.2984 
     87 H87       -71.4598   30.3813  -76.1808 H         1 UNK         0.0554 
     88 H88       -68.9637   30.1776  -76.1169 H         1 UNK         0.0847 
     89 H89       -68.9659   30.5336  -74.3902 H         1 UNK         0.0847 
     90 H90       -69.4773   31.7546  -75.5465 H         1 UNK         0.0847 
     91 H91       -70.1982   28.3992  -74.3935 H         1 UNK         0.3141 
     92 H92       -70.7283   26.2727  -74.5610 H         1 UNK         0.0743 
     93 H93       -72.4109   26.8959  -72.8199 H         1 UNK         0.0784 
     94 H94       -72.5498   25.1956  -73.2431 H         1 UNK         0.0784 
     95 H95       -73.7105   26.3664  -73.8774 H         1 UNK         0.0784 
     96 H96       -73.0217   25.0521  -75.8429 H         1 UNK         0.3213 
     97 H97       -71.6441   24.5366  -78.9717 H         1 UNK         0.0855 
     98 H98       -71.3811   22.4084  -76.7777 H         1 UNK         0.0814 
     99 H99       -70.0925   22.9372  -77.8511 H         1 UNK         0.0814 
    100 H100      -71.4861   22.0977  -78.5108 H         1 UNK         0.0814 
    101 H101      -73.6624   23.2043  -77.2866 H         1 UNK         0.3105 
    102 H102      -76.3335   25.0965  -78.7229 H         1 UNK         0.0547 
    103 H103      -77.1048   22.7820  -79.0429 H         1 UNK         0.0837 
    104 H104      -75.4976   22.1514  -78.6917 H         1 UNK         0.0837 
    105 H105      -75.7674   23.1261  -80.1281 H         1 UNK         0.0837 
    106 H106      -76.9135   24.8651  -76.6611 H         1 UNK         0.3020 
    107 H107      -76.3760   22.4385  -74.1022 H         1 UNK         0.1245 
    108 H108      -76.3647   25.5048  -74.1208 H         1 UNK         0.0781 
    109 H109      -75.0395   24.4899  -73.5766 H         1 UNK         0.0781 
    110 H110      -74.8866   25.6661  -71.4305 H         1 UNK         0.0836 
    111 H111      -75.9414   25.4214  -70.0666 H         1 UNK         0.0836 
    112 H112      -78.5223   24.2693  -74.6045 H         1 UNK         0.3022 
    113 H113      -80.5572   21.9234  -76.3875 H         1 UNK         0.0747 
    114 H114      -82.1266   22.4445  -74.5824 H         1 UNK         0.0793 
    115 H115      -80.8584   21.4124  -73.9541 H         1 UNK         0.0793 
    116 H116      -80.8409   23.1296  -73.5849 H         1 UNK         0.0793 
    117 H117      -80.6942   24.7130  -75.4675 H         1 UNK         0.3047 
    118 H118      -79.7007   26.0626  -78.5838 H         1 UNK         0.0822 
    119 H119      -81.9305   27.1590  -78.6370 H         1 UNK         0.0807 
    120 H120      -82.5836   25.9400  -77.5419 H         1 UNK         0.0807 
    121 H121      -82.0606   25.4876  -79.1579 H         1 UNK         0.0807 
    122 H122      -80.8986   27.2231  -76.2434 H         1 UNK         0.2946 
    123 H123      -77.9388   27.5501  -74.3305 H         1 UNK         0.1144 
    124 H124      -78.5093   30.0061  -74.5464 H         1 UNK         0.0793 
    125 H125      -79.3396   29.6685  -76.0599 H         1 UNK         0.0793 
    126 H126      -77.6055   29.4035  -75.9285 H         1 UNK         0.0793 
    127 H127      -80.4261   28.7270  -73.8864 H         1 UNK         0.2896 
@<TRIPOS>BOND
     1    1    2 1    
     2    1   67 1    
     3    1   68 1    
     4    1   69 1    
     5    2    3 2    
     6    2    4 am   BACKBONE|DICT|INTERRES
     7    4    5 1    
     8    4   70 1    
     9    5    6 1    
    10    5   65 1    
    11    5   71 1    
    12    6    7 1    
    13    6   72 1    
    14    6   73 1    
    15    7    8 1    
    16    8    9 1    
    17    8   74 1    
    18    8   75 1    
    19    9   10 ar   
    20    9   14 ar   
    21   10   11 ar   
    22   10   76 1    
    23   11   12 ar   
    24   11   48 1    
    25   12   13 ar   
    26   12   77 1    
    27   13   14 ar   
    28   13   15 1    
    29   14   78 1    
    30   15   16 1    
    31   15   79 1    
    32   15   80 1    
    33   16   17 1    
    34   17   18 1    
    35   17   81 1    
    36   17   82 1    
    37   18   19 1    
    38   18   22 1    
    39   18   83 1    
    40   19   20 am   BACKBONE|DICT|INTERRES
    41   19   21 2    
    42   20   84 1    
    43   20   85 1    
    44   22   23 am   BACKBONE|DICT|INTERRES
    45   22   86 1    
    46   23   24 2    
    47   23   25 1    
    48   25   26 1    
    49   25   27 1    
    50   25   87 1    
    51   26   88 1    
    52   26   89 1    
    53   26   90 1    
    54   27   28 am   BACKBONE|DICT|INTERRES
    55   27   91 1    
    56   28   29 2    
    57   28   30 1    
    58   30   31 1    
    59   30   32 1    
    60   30   92 1    
    61   31   93 1    
    62   31   94 1    
    63   31   95 1    
    64   32   33 am   BACKBONE|DICT|INTERRES
    65   32   96 1    
    66   33   34 2    
    67   33   35 1    
    68   35   36 1    
    69   35   37 1    
    70   35   97 1    
    71   36   98 1    
    72   36   99 1    
    73   36  100 1    
    74   37   38 am   BACKBONE|DICT|INTERRES
    75   37  101 1    
    76   38   39 2    
    77   38   40 1    
    78   40   41 1    
    79   40   42 1    
    80   40  102 1    
    81   41  103 1    
    82   41  104 1    
    83   41  105 1    
    84   42   43 am   BACKBONE|DICT|INTERRES
    85   42  106 1    
    86   43   44 2    
    87   43   45 1    
    88   45   46 1    
    89   45   49 1    
    90   45  107 1    
    91   46   47 1    
    92   46  108 1    
    93   46  109 1    
    94   47   48 1    
    95   48  110 1    
    96   48  111 1    
    97   49   50 am   BACKBONE|DICT|INTERRES
    98   49  112 1    
    99   50   51 2    
   100   50   52 1    
   101   52   53 1    
   102   52   54 1    
   103   52  113 1    
   104   53  114 1    
   105   53  115 1    
   106   53  116 1    
   107   54   55 am   BACKBONE|DICT|INTERRES
   108   54  117 1    
   109   55   56 2    
   110   55   57 1    
   111   57   58 1    
   112   57   59 1    
   113   57  118 1    
   114   58  119 1    
   115   58  120 1    
   116   58  121 1    
   117   59   60 am   BACKBONE|DICT|INTERRES
   118   59  122 1    
   119   60   61 2    
   120   60   62 1    
   121   62   63 1    
   122   62   64 1    
   123   62  123 1    
   124   63  124 1    
   125   63  125 1    
   126   63  126 1    
   127   64   65 am   BACKBONE|DICT|INTERRES
   128   64  127 1    
   129   65   66 2    
@<TRIPOS>SUBSTRUCTURE
     1 UNK         1 GROUP             0       ****    0 ROOT    
