@<TRIPOS>MOLECULE
3R135
127   129    1
SMALL
USER_CHARGES


@<TRIPOS>ATOM
      1 CA        -85.4225   26.1234  -71.6466 C.3       0 UNK        -0.1998 
      2 C         -84.9627   26.3679  -73.0759 C.2       0 UNK         0.4909 
      3 O         -85.5882   25.8727  -74.0139 O.2       0 UNK        -0.5240 
      4 N         -83.8756   27.1307  -73.2489 N.am      1 UNK        -0.4739 
      5 CA        -83.2617   27.4416  -74.5469 C.3       1 UNK         0.0864 
      6 C6        -82.2987   28.6507  -74.4466 C.3       11 UNK        -0.0881 
      7 S7        -80.9561   28.4043  -73.2353 S.3       11 UNK        -0.2682 
      8 C8        -80.0159   29.9539  -73.4329 C.3       11 UNK         0.0289 
      9 C9        -78.5640   29.8615  -72.9652 C.ar      11 UNK        -0.0687 
     10 C10       -78.1672   28.9973  -71.9376 C.ar      11 UNK        -0.0823 
     11 C11       -76.8321   28.9295  -71.5342 C.ar      11 UNK        -0.0830 
     12 C12       -75.8844   29.7491  -72.1545 C.ar      11 UNK        -0.1021 
     13 C13       -76.2627   30.6248  -73.1793 C.ar      11 UNK        -0.0753 
     14 C14       -77.6045   30.6785  -73.5701 C.ar      11 UNK        -0.0933 
     15 C15       -75.2487   31.5429  -73.8540 C.3       11 UNK         0.0166 
     16 S16       -73.7972   30.6538  -74.5060 S.3       11 UNK        -0.2615 
     17 C17       -72.5491   31.1149  -73.2560 C.3       11 UNK        -0.0865 
     18 CA        -71.2297   30.3082  -73.3619 C.3       10 UNK         0.0862 
     19 C         -70.2034   30.8365  -72.3152 C.2       10 UNK         0.5551 
     20 N         -69.8936   30.0982  -71.2563 N.am      10 UNK        -0.7319 
     21 O         -69.6847   31.9394  -72.4692 O.2       10 UNK        -0.5018 
     22 N         -71.4800   28.8573  -73.3315 N.am      10 UNK        -0.4509 
     23 C         -70.5690   27.9053  -73.5724 C.2       10 UNK         0.4899 
     24 O         -69.3919   28.1271  -73.8560 O.2       10 UNK        -0.4839 
     25 CA        -71.0724   26.4584  -73.5163 C.3       9 UNK         0.0222 
     26 CB        -71.9230   26.1776  -72.2650 C.3       9 UNK        -0.1966 
     27 N         -71.8583   26.1843  -74.7156 N.am      9 UNK        -0.4218 
     28 C         -71.3575   25.6733  -75.8488 C.2       9 UNK         0.5020 
     29 O         -70.1891   25.3074  -75.9845 O.2       9 UNK        -0.5274 
     30 CA        -72.3158   25.5569  -77.0393 C.3       8 UNK         0.0270 
     31 CB        -73.2013   24.3099  -76.8995 C.3       8 UNK        -0.1976 
     32 N         -73.1614   26.7448  -77.1484 N.am      8 UNK        -0.4313 
     33 C         -73.0019   27.7272  -78.0434 C.2       8 UNK         0.5041 
     34 O         -72.1145   27.7290  -78.8985 O.2       8 UNK        -0.5577 
     35 CA        -73.9716   28.9260  -77.9704 C.3       7 UNK         0.0284 
     36 CB        -74.4742   29.3550  -79.3653 C.3       7 UNK        -0.1958 
     37 N         -75.0914   28.7470  -77.0359 N.am      7 UNK        -0.4454 
     38 C         -76.1050   27.8726  -77.1147 C.2       7 UNK         0.5089 
     39 O         -76.2769   27.0770  -78.0388 O.2       7 UNK        -0.5125 
     40 CA        -77.0688   27.8721  -75.9192 C.3       6 UNK         0.0408 
     41 CB        -78.5338   27.9191  -76.3834 C.3       6 UNK        -0.1791 
     42 N         -76.8770   26.7302  -75.0212 N.am      6 UNK        -0.4762 
     43 C         -75.7367   26.4010  -74.3913 C.2       6 UNK         0.5007 
     44 O         -74.6466   26.9419  -74.5980 O.2       6 UNK        -0.5032 
     45 CA        -75.8115   25.2474  -73.3782 C.3       5 UNK         0.0783 
     46 C46       -76.5216   25.6609  -72.0632 C.3       11 UNK        -0.0857 
     47 S47       -75.4044   26.5964  -70.9622 S.3       11 UNK        -0.2512 
     48 C48       -76.4301   27.9932  -70.4025 C.3       11 UNK         0.0225 
     49 N         -76.4379   24.0812  -74.0018 N.am      5 UNK        -0.4615 
     50 C         -75.8138   22.9158  -74.2289 C.2       4 UNK         0.5053 
     51 O         -74.6642   22.6720  -73.8625 O.2       4 UNK        -0.5105 
     52 CA        -76.5870   21.8278  -74.9994 C.3       4 UNK         0.0263 
     53 CB        -77.1873   20.8043  -74.0220 C.3       4 UNK        -0.1981 
     54 N         -77.6546   22.3643  -75.8437 N.am      4 UNK        -0.4224 
     55 C         -77.4715   23.1408  -76.9213 C.2       3 UNK         0.4895 
     56 O         -76.3692   23.3647  -77.4175 O.2       3 UNK        -0.5091 
     57 CA        -78.7208   23.7968  -77.5402 C.3       3 UNK         0.0250 
     58 CB        -79.0427   23.1635  -78.9038 C.3       3 UNK        -0.1996 
     59 N         -79.9214   23.7449  -76.6946 N.am      3 UNK        -0.4254 
     60 C         -80.0653   24.3309  -75.4975 C.2       2 UNK         0.5004 
     61 O         -79.1785   24.9802  -74.9345 O.2       2 UNK        -0.5226 
     62 CA        -81.3946   24.0672  -74.7727 C.3       2 UNK         0.0269 
     63 CB        -81.1619   23.1865  -73.5337 C.3       2 UNK        -0.1926 
     64 N         -82.0556   25.3040  -74.3630 N.am      2 UNK        -0.4687 
     65 C         -82.5789   26.2158  -75.1960 C.2       1 UNK         0.5165 
     66 O         -82.5644   26.1083  -76.4234 O.2       1 UNK        -0.5079 
     67 H67       -84.7832   26.6259  -70.9209 H         1 UNK         0.0900 
     68 H68       -85.4115   25.0562  -71.4266 H         1 UNK         0.0900 
     69 H69       -86.4402   26.4890  -71.5121 H         1 UNK         0.0900 
     70 H70       -83.3979   27.5145  -72.4451 H         1 UNK         0.2959 
     71 H71       -84.0697   27.7289  -75.2239 H         1 UNK         0.1079 
     72 H72       -81.8638   28.8725  -75.4234 H         1 UNK         0.0837 
     73 H73       -82.8588   29.5423  -74.1602 H         1 UNK         0.0837 
     74 H74       -80.0373   30.2410  -74.4853 H         1 UNK         0.0685 
     75 H75       -80.5194   30.7481  -72.8806 H         1 UNK         0.0685 
     76 H76       -78.8975   28.3726  -71.4435 H         1 UNK         0.1434 
     77 H77       -74.8532   29.6995  -71.8369 H         1 UNK         0.1329 
     78 H78       -77.9057   31.3586  -74.3553 H         1 UNK         0.1335 
     79 H79       -75.7119   32.0718  -74.6884 H         1 UNK         0.0680 
     80 H80       -74.9394   32.3135  -73.1468 H         1 UNK         0.0680 
     81 H81       -72.9801   30.9973  -72.2605 H         1 UNK         0.1032 
     82 H82       -72.3476   32.1820  -73.3718 H         1 UNK         0.1032 
     83 H83       -70.7953   30.5215  -74.3406 H         1 UNK         0.0461 
     84 H84       -69.2274   30.4489  -70.5863 H         1 UNK         0.3453 
     85 H85       -70.3135   29.1925  -71.1257 H         1 UNK         0.3453 
     86 H86       -72.4330   28.5834  -73.1440 H         1 UNK         0.2984 
     87 H87       -70.2024   25.7993  -73.4769 H         1 UNK         0.0554 
     88 H88       -72.2023   25.1253  -72.2084 H         1 UNK         0.0847 
     89 H89       -72.8418   26.7619  -72.2544 H         1 UNK         0.0847 
     90 H90       -71.3717   26.4142  -71.3541 H         1 UNK         0.0847 
     91 H91       -72.8297   26.4834  -74.6978 H         1 UNK         0.3141 
     92 H92       -71.7122   25.4375  -77.9416 H         1 UNK         0.0743 
     93 H93       -73.8668   24.3776  -76.0390 H         1 UNK         0.0784 
     94 H94       -73.8187   24.1687  -77.7866 H         1 UNK         0.0784 
     95 H95       -72.5983   23.4091  -76.7775 H         1 UNK         0.0784 
     96 H96       -73.8955   26.8508  -76.4561 H         1 UNK         0.3213 
     97 H97       -73.3834   29.7524  -77.5683 H         1 UNK         0.0855 
     98 H98       -73.6422   29.6408  -80.0100 H         1 UNK         0.0814 
     99 H99       -75.1409   30.2148  -79.3005 H         1 UNK         0.0814 
    100 H100      -75.0100   28.5502  -79.8693 H         1 UNK         0.0814 
    101 H101      -75.0245   29.3028  -76.1912 H         1 UNK         0.3105 
    102 H102      -76.8803   28.7691  -75.3311 H         1 UNK         0.0547 
    103 H103      -78.7244   28.8075  -76.9863 H         1 UNK         0.0837 
    104 H104      -78.7976   27.0516  -76.9874 H         1 UNK         0.0837 
    105 H105      -79.2163   27.9473  -75.5362 H         1 UNK         0.0837 
    106 H106      -77.7131   26.1811  -74.8381 H         1 UNK         0.3020 
    107 H107      -74.7769   25.0007  -73.1282 H         1 UNK         0.1245 
    108 H108      -76.8277   24.7702  -71.5124 H         1 UNK         0.0781 
    109 H109      -77.4403   26.2169  -72.2578 H         1 UNK         0.0781 
    110 H110      -75.8705   28.5598  -69.6570 H         1 UNK         0.0836 
    111 H111      -77.3086   27.6022  -69.8867 H         1 UNK         0.0836 
    112 H112      -77.3811   24.2119  -74.3520 H         1 UNK         0.3022 
    113 H113      -75.8728   21.3126  -75.6453 H         1 UNK         0.0747 
    114 H114      -77.6765   19.9871  -74.5525 H         1 UNK         0.0793 
    115 H115      -76.4110   20.3621  -73.3957 H         1 UNK         0.0793 
    116 H116      -77.9207   21.2619  -73.3566 H         1 UNK         0.0793 
    117 H117      -78.6006   22.2145  -75.5275 H         1 UNK         0.3047 
    118 H118      -78.4728   24.8472  -77.7026 H         1 UNK         0.0822 
    119 H119      -79.8656   23.6804  -79.3980 H         1 UNK         0.0807 
    120 H120      -79.3136   22.1114  -78.8071 H         1 UNK         0.0807 
    121 H121      -78.1825   23.2181  -79.5728 H         1 UNK         0.0807 
    122 H122      -80.7008   23.2240  -77.0710 H         1 UNK         0.2946 
    123 H123      -82.0720   23.5382  -75.4470 H         1 UNK         0.1144 
    124 H124      -80.6979   22.2381  -73.8072 H         1 UNK         0.0793 
    125 H125      -82.1007   22.9521  -73.0314 H         1 UNK         0.0793 
    126 H126      -80.5067   23.6731  -72.8095 H         1 UNK         0.0793 
    127 H127      -82.0813   25.5020  -73.3737 H         1 UNK         0.2896 
@<TRIPOS>BOND
     1    1    2 1    
     2    1   67 1    
     3    1   68 1    
     4    1   69 1    
     5    2    3 2    
     6    2    4 am   BACKBONE|DICT|INTERRES
     7    4    5 1    
     8    4   70 1    
     9    5    6 1    
    10    5   65 1    
    11    5   71 1    
    12    6    7 1    
    13    6   72 1    
    14    6   73 1    
    15    7    8 1    
    16    8    9 1    
    17    8   74 1    
    18    8   75 1    
    19    9   10 ar   
    20    9   14 ar   
    21   10   11 ar   
    22   10   76 1    
    23   11   12 ar   
    24   11   48 1    
    25   12   13 ar   
    26   12   77 1    
    27   13   14 ar   
    28   13   15 1    
    29   14   78 1    
    30   15   16 1    
    31   15   79 1    
    32   15   80 1    
    33   16   17 1    
    34   17   18 1    
    35   17   81 1    
    36   17   82 1    
    37   18   19 1    
    38   18   22 1    
    39   18   83 1    
    40   19   20 am   BACKBONE|DICT|INTERRES
    41   19   21 2    
    42   20   84 1    
    43   20   85 1    
    44   22   23 am   BACKBONE|DICT|INTERRES
    45   22   86 1    
    46   23   24 2    
    47   23   25 1    
    48   25   26 1    
    49   25   27 1    
    50   25   87 1    
    51   26   88 1    
    52   26   89 1    
    53   26   90 1    
    54   27   28 am   BACKBONE|DICT|INTERRES
    55   27   91 1    
    56   28   29 2    
    57   28   30 1    
    58   30   31 1    
    59   30   32 1    
    60   30   92 1    
    61   31   93 1    
    62   31   94 1    
    63   31   95 1    
    64   32   33 am   BACKBONE|DICT|INTERRES
    65   32   96 1    
    66   33   34 2    
    67   33   35 1    
    68   35   36 1    
    69   35   37 1    
    70   35   97 1    
    71   36   98 1    
    72   36   99 1    
    73   36  100 1    
    74   37   38 am   BACKBONE|DICT|INTERRES
    75   37  101 1    
    76   38   39 2    
    77   38   40 1    
    78   40   41 1    
    79   40   42 1    
    80   40  102 1    
    81   41  103 1    
    82   41  104 1    
    83   41  105 1    
    84   42   43 am   BACKBONE|DICT|INTERRES
    85   42  106 1    
    86   43   44 2    
    87   43   45 1    
    88   45   46 1    
    89   45   49 1    
    90   45  107 1    
    91   46   47 1    
    92   46  108 1    
    93   46  109 1    
    94   47   48 1    
    95   48  110 1    
    96   48  111 1    
    97   49   50 am   BACKBONE|DICT|INTERRES
    98   49  112 1    
    99   50   51 2    
   100   50   52 1    
   101   52   53 1    
   102   52   54 1    
   103   52  113 1    
   104   53  114 1    
   105   53  115 1    
   106   53  116 1    
   107   54   55 am   BACKBONE|DICT|INTERRES
   108   54  117 1    
   109   55   56 2    
   110   55   57 1    
   111   57   58 1    
   112   57   59 1    
   113   57  118 1    
   114   58  119 1    
   115   58  120 1    
   116   58  121 1    
   117   59   60 am   BACKBONE|DICT|INTERRES
   118   59  122 1    
   119   60   61 2    
   120   60   62 1    
   121   62   63 1    
   122   62   64 1    
   123   62  123 1    
   124   63  124 1    
   125   63  125 1    
   126   63  126 1    
   127   64   65 am   BACKBONE|DICT|INTERRES
   128   64  127 1    
   129   65   66 2    
@<TRIPOS>SUBSTRUCTURE
     1 UNK         1 GROUP             0       ****    0 ROOT    
