@<TRIPOS>MOLECULE
3R135
127   129    1
SMALL
USER_CHARGES


@<TRIPOS>ATOM
      1 CA        -83.7956   27.7774  -71.1628 C.3       0 UNK        -0.1998 
      2 C         -83.2904   28.1633  -72.5449 C.2       0 UNK         0.4909 
      3 O         -84.0941   28.4002  -73.4472 O.2       0 UNK        -0.5240 
      4 N         -81.9636   28.2296  -72.7151 N.am      1 UNK        -0.4739 
      5 CA        -81.2979   28.5672  -73.9807 C.3       1 UNK         0.0864 
      6 C6        -79.8197   28.9738  -73.7555 C.3       11 UNK        -0.0881 
      7 S7        -79.6643   30.6077  -72.9522 S.3       11 UNK        -0.2682 
      8 C8        -79.4689   30.2062  -71.1831 C.3       11 UNK         0.0289 
      9 C9        -78.1884   29.4353  -70.8965 C.ar      11 UNK        -0.0687 
     10 C10       -78.2455   28.0898  -70.5238 C.ar      11 UNK        -0.0823 
     11 C11       -77.0709   27.3603  -70.3132 C.ar      11 UNK        -0.0830 
     12 C12       -75.8342   28.0057  -70.4173 C.ar      11 UNK        -0.1021 
     13 C13       -75.7636   29.3581  -70.7678 C.ar      11 UNK        -0.0753 
     14 C14       -76.9456   30.0651  -71.0094 C.ar      11 UNK        -0.0933 
     15 C15       -74.4196   30.0716  -70.8679 C.3       11 UNK         0.0166 
     16 S16       -73.1950   29.2178  -71.9188 S.3       11 UNK        -0.2615 
     17 C17       -74.0120   29.1321  -73.5545 C.3       11 UNK        -0.0865 
     18 CA        -73.8281   30.3706  -74.4773 C.3       10 UNK         0.0862 
     19 C         -74.8279   31.5073  -74.1334 C.2       10 UNK         0.5551 
     20 N         -76.1126   31.2994  -74.3880 N.am      10 UNK        -0.7319 
     21 O         -74.4578   32.5680  -73.6318 O.2       10 UNK        -0.5018 
     22 N         -72.4471   30.8767  -74.4852 N.am      10 UNK        -0.4509 
     23 C         -71.4482   30.6585  -75.3498 C.2       10 UNK         0.4899 
     24 O         -70.3750   31.2484  -75.2244 O.2       10 UNK        -0.4839 
     25 CA        -71.6261   29.6637  -76.5219 C.3       9 UNK         0.0222 
     26 CB        -70.5247   29.8158  -77.5934 C.3       9 UNK        -0.1966 
     27 N         -71.7089   28.2614  -76.0951 N.am      9 UNK        -0.4218 
     28 C         -70.8277   27.5684  -75.3518 C.2       9 UNK         0.5020 
     29 O         -69.7925   28.0454  -74.8854 O.2       9 UNK        -0.5274 
     30 CA        -71.1264   26.0790  -75.0843 C.3       8 UNK         0.0270 
     31 CB        -71.4652   25.8435  -73.6020 C.3       8 UNK        -0.1976 
     32 N         -72.2008   25.5408  -75.9249 N.am      8 UNK        -0.4313 
     33 C         -72.0335   25.1376  -77.1945 C.2       8 UNK         0.5041 
     34 O         -70.9378   25.1097  -77.7566 O.2       8 UNK        -0.5577 
     35 CA        -73.2838   24.7087  -77.9919 C.3       7 UNK         0.0284 
     36 CB        -73.4317   23.1788  -77.9647 C.3       7 UNK        -0.1958 
     37 N         -74.5396   25.3158  -77.5416 N.am      7 UNK        -0.4454 
     38 C         -74.7826   26.6303  -77.4424 C.2       7 UNK         0.5089 
     39 O         -73.9912   27.5043  -77.7942 O.2       7 UNK        -0.5125 
     40 CA        -76.0921   27.0465  -76.7535 C.3       6 UNK         0.0408 
     41 CB        -77.2094   27.2388  -77.7884 C.3       6 UNK        -0.1791 
     42 N         -76.5462   26.1223  -75.7087 N.am      6 UNK        -0.4762 
     43 C         -75.8331   25.7196  -74.6453 C.2       6 UNK         0.5007 
     44 O         -74.6521   26.0074  -74.4627 O.2       6 UNK        -0.5032 
     45 CA        -76.5632   24.8399  -73.6200 C.3       5 UNK         0.0783 
     46 C46       -77.6238   25.6754  -72.8685 C.3       11 UNK        -0.0857 
     47 S47       -78.1289   24.9364  -71.2779 S.3       11 UNK        -0.2512 
     48 C48       -77.1279   25.8583  -70.0497 C.3       11 UNK         0.0225 
     49 N         -77.1415   23.6808  -74.2969 N.am      5 UNK        -0.4615 
     50 C         -76.4476   22.5964  -74.6645 C.2       4 UNK         0.5053 
     51 O         -75.2733   22.3969  -74.3543 O.2       4 UNK        -0.5105 
     52 CA        -77.1781   21.5633  -75.5418 C.3       4 UNK         0.0263 
     53 CB        -77.8139   20.4711  -74.6669 C.3       4 UNK        -0.1981 
     54 N         -78.2070   22.1523  -76.4045 N.am      4 UNK        -0.4224 
     55 C         -77.9668   23.0028  -77.4134 C.2       3 UNK         0.4895 
     56 O         -76.8410   23.3682  -77.7534 O.2       3 UNK        -0.5091 
     57 CA        -79.2003   23.5837  -78.1301 C.3       3 UNK         0.0250 
     58 CB        -79.6827   22.6270  -79.2320 C.3       3 UNK        -0.1996 
     59 N         -80.3202   23.9103  -77.2347 N.am      3 UNK        -0.4254 
     60 C         -80.2428   24.7418  -76.1858 C.2       2 UNK         0.5004 
     61 O         -79.1957   25.2796  -75.8240 O.2       2 UNK        -0.5226 
     62 CA        -81.5296   24.9602  -75.3709 C.3       2 UNK         0.0269 
     63 CB        -81.7776   23.7586  -74.4434 C.3       2 UNK        -0.1926 
     64 N         -81.4753   26.1747  -74.5496 N.am      2 UNK        -0.4687 
     65 C         -81.4061   27.4297  -75.0205 C.2       1 UNK         0.5165 
     66 O         -81.4434   27.7116  -76.2195 O.2       1 UNK        -0.5079 
     67 H67       -84.4254   28.5698  -70.7593 H         1 UNK         0.0900 
     68 H68       -82.9787   27.6044  -70.4623 H         1 UNK         0.0900 
     69 H69       -84.3902   26.8662  -71.2220 H         1 UNK         0.0900 
     70 H70       -81.3542   28.0308  -71.9364 H         1 UNK         0.2959 
     71 H71       -81.8208   29.4228  -74.4151 H         1 UNK         0.1079 
     72 H72       -79.2850   28.2144  -73.1851 H         1 UNK         0.0837 
     73 H73       -79.2946   29.0487  -74.7103 H         1 UNK         0.0837 
     74 H74       -80.3442   29.6568  -70.8354 H         1 UNK         0.0685 
     75 H75       -79.4545   31.1377  -70.6157 H         1 UNK         0.0685 
     76 H76       -79.2018   27.5918  -70.4443 H         1 UNK         0.1434 
     77 H77       -74.9201   27.4523  -70.2503 H         1 UNK         0.1329 
     78 H78       -76.9029   31.1080  -71.2934 H         1 UNK         0.1335 
     79 H79       -74.5464   31.0913  -71.2325 H         1 UNK         0.0680 
     80 H80       -74.0046   30.1620  -69.8634 H         1 UNK         0.0680 
     81 H81       -75.0648   28.8729  -73.4292 H         1 UNK         0.1032 
     82 H82       -73.5779   28.2737  -74.0611 H         1 UNK         0.1032 
     83 H83       -74.0961   30.0670  -75.4887 H         1 UNK         0.0461 
     84 H84       -76.4374   30.4393  -74.7976 H         1 UNK         0.3453 
     85 H85       -76.7762   32.0239  -74.1643 H         1 UNK         0.3453 
     86 H86       -72.2884   31.5585  -73.7566 H         1 UNK         0.2984 
     87 H87       -72.5653   29.9018  -77.0201 H         1 UNK         0.0554 
     88 H88       -70.7097   29.1616  -78.4454 H         1 UNK         0.0847 
     89 H89       -69.5358   29.5784  -77.1993 H         1 UNK         0.0847 
     90 H90       -70.4869   30.8378  -77.9725 H         1 UNK         0.0847 
     91 H91       -72.5105   27.7612  -76.4656 H         1 UNK         0.3141 
     92 H92       -70.2095   25.5267  -75.3010 H         1 UNK         0.0743 
     93 H93       -72.3420   26.4077  -73.2866 H         1 UNK         0.0784 
     94 H94       -71.6552   24.7893  -73.4002 H         1 UNK         0.0784 
     95 H95       -70.6384   26.1521  -72.9609 H         1 UNK         0.0784 
     96 H96       -73.1359   25.5540  -75.5220 H         1 UNK         0.3213 
     97 H97       -73.1272   25.0211  -79.0263 H         1 UNK         0.0855 
     98 H98       -73.6513   22.8140  -76.9602 H         1 UNK         0.0814 
     99 H99       -72.5158   22.6892  -78.2987 H         1 UNK         0.0814 
    100 H100      -74.2336   22.8460  -78.6240 H         1 UNK         0.0814 
    101 H101      -75.2843   24.6767  -77.2808 H         1 UNK         0.3105 
    102 H102      -75.9115   28.0071  -76.2674 H         1 UNK         0.0547 
    103 H103      -76.9284   27.9856  -78.5322 H         1 UNK         0.0837 
    104 H104      -77.4222   26.3126  -78.3214 H         1 UNK         0.0837 
    105 H105      -78.1345   27.5771  -77.3206 H         1 UNK         0.0837 
    106 H106      -77.5166   25.8125  -75.7769 H         1 UNK         0.3020 
    107 H107      -75.8144   24.4998  -72.9004 H         1 UNK         0.1245 
    108 H108      -77.2661   26.6922  -72.7156 H         1 UNK         0.0781 
    109 H109      -78.5251   25.7931  -73.4683 H         1 UNK         0.0781 
    110 H110      -77.5399   25.6861  -69.0547 H         1 UNK         0.0836 
    111 H111      -76.1229   25.4335  -70.0433 H         1 UNK         0.0836 
    112 H112      -78.0830   23.7987  -74.6457 H         1 UNK         0.3022 
    113 H113      -76.4306   21.0957  -76.1865 H         1 UNK         0.0747 
    114 H114      -78.2643   19.6864  -75.2752 H         1 UNK         0.0793 
    115 H115      -77.0650   19.9960  -74.0315 H         1 UNK         0.0793 
    116 H116      -78.5867   20.8761  -74.0121 H         1 UNK         0.0793 
    117 H117      -79.1661   21.9128  -76.2004 H         1 UNK         0.3047 
    118 H118      -78.8889   24.5140  -78.6074 H         1 UNK         0.0822 
    119 H119      -80.0530   21.6872  -78.8204 H         1 UNK         0.0807 
    120 H120      -78.8714   22.3841  -79.9201 H         1 UNK         0.0807 
    121 H121      -80.4822   23.0733  -79.8237 H         1 UNK         0.0807 
    122 H122      -81.2120   23.4926  -77.4598 H         1 UNK         0.2946 
    123 H123      -82.3649   25.0594  -76.0677 H         1 UNK         0.1144 
    124 H124      -81.8698   22.8314  -75.0105 H         1 UNK         0.0793 
    125 H125      -82.7017   23.8791  -73.8774 H         1 UNK         0.0793 
    126 H126      -80.9630   23.6250  -73.7298 H         1 UNK         0.0793 
    127 H127      -81.4364   26.0431  -73.5503 H         1 UNK         0.2896 
@<TRIPOS>BOND
     1    1    2 1    
     2    1   67 1    
     3    1   68 1    
     4    1   69 1    
     5    2    3 2    
     6    2    4 am   BACKBONE|DICT|INTERRES
     7    4    5 1    
     8    4   70 1    
     9    5    6 1    
    10    5   65 1    
    11    5   71 1    
    12    6    7 1    
    13    6   72 1    
    14    6   73 1    
    15    7    8 1    
    16    8    9 1    
    17    8   74 1    
    18    8   75 1    
    19    9   10 ar   
    20    9   14 ar   
    21   10   11 ar   
    22   10   76 1    
    23   11   12 ar   
    24   11   48 1    
    25   12   13 ar   
    26   12   77 1    
    27   13   14 ar   
    28   13   15 1    
    29   14   78 1    
    30   15   16 1    
    31   15   79 1    
    32   15   80 1    
    33   16   17 1    
    34   17   18 1    
    35   17   81 1    
    36   17   82 1    
    37   18   19 1    
    38   18   22 1    
    39   18   83 1    
    40   19   20 am   BACKBONE|DICT|INTERRES
    41   19   21 2    
    42   20   84 1    
    43   20   85 1    
    44   22   23 am   BACKBONE|DICT|INTERRES
    45   22   86 1    
    46   23   24 2    
    47   23   25 1    
    48   25   26 1    
    49   25   27 1    
    50   25   87 1    
    51   26   88 1    
    52   26   89 1    
    53   26   90 1    
    54   27   28 am   BACKBONE|DICT|INTERRES
    55   27   91 1    
    56   28   29 2    
    57   28   30 1    
    58   30   31 1    
    59   30   32 1    
    60   30   92 1    
    61   31   93 1    
    62   31   94 1    
    63   31   95 1    
    64   32   33 am   BACKBONE|DICT|INTERRES
    65   32   96 1    
    66   33   34 2    
    67   33   35 1    
    68   35   36 1    
    69   35   37 1    
    70   35   97 1    
    71   36   98 1    
    72   36   99 1    
    73   36  100 1    
    74   37   38 am   BACKBONE|DICT|INTERRES
    75   37  101 1    
    76   38   39 2    
    77   38   40 1    
    78   40   41 1    
    79   40   42 1    
    80   40  102 1    
    81   41  103 1    
    82   41  104 1    
    83   41  105 1    
    84   42   43 am   BACKBONE|DICT|INTERRES
    85   42  106 1    
    86   43   44 2    
    87   43   45 1    
    88   45   46 1    
    89   45   49 1    
    90   45  107 1    
    91   46   47 1    
    92   46  108 1    
    93   46  109 1    
    94   47   48 1    
    95   48  110 1    
    96   48  111 1    
    97   49   50 am   BACKBONE|DICT|INTERRES
    98   49  112 1    
    99   50   51 2    
   100   50   52 1    
   101   52   53 1    
   102   52   54 1    
   103   52  113 1    
   104   53  114 1    
   105   53  115 1    
   106   53  116 1    
   107   54   55 am   BACKBONE|DICT|INTERRES
   108   54  117 1    
   109   55   56 2    
   110   55   57 1    
   111   57   58 1    
   112   57   59 1    
   113   57  118 1    
   114   58  119 1    
   115   58  120 1    
   116   58  121 1    
   117   59   60 am   BACKBONE|DICT|INTERRES
   118   59  122 1    
   119   60   61 2    
   120   60   62 1    
   121   62   63 1    
   122   62   64 1    
   123   62  123 1    
   124   63  124 1    
   125   63  125 1    
   126   63  126 1    
   127   64   65 am   BACKBONE|DICT|INTERRES
   128   64  127 1    
   129   65   66 2    
@<TRIPOS>SUBSTRUCTURE
     1 UNK         1 GROUP             0       ****    0 ROOT    
