@<TRIPOS>MOLECULE
3R135
127   129    1
SMALL
USER_CHARGES


@<TRIPOS>ATOM
      1 CA        -86.1829   28.9631  -74.1481 C.3       0 UNK        -0.1998 
      2 C         -84.8038   28.8670  -74.7837 C.2       0 UNK         0.4909 
      3 O         -84.6796   29.0271  -75.9984 O.2       0 UNK        -0.5240 
      4 N         -83.7721   28.6205  -73.9676 N.am      1 UNK        -0.4739 
      5 CA        -82.3812   28.4284  -74.3839 C.3       1 UNK         0.0864 
      6 C6        -81.3765   29.0172  -73.3527 C.3       11 UNK        -0.0881 
      7 S7        -81.6746   28.5209  -71.6173 S.3       11 UNK        -0.2682 
      8 C8        -80.5383   29.6369  -70.7372 C.3       11 UNK         0.0289 
      9 C9        -79.0839   29.2701  -70.9912 C.ar      11 UNK        -0.0687 
     10 C10       -78.5307   28.1473  -70.3699 C.ar      11 UNK        -0.0823 
     11 C11       -77.1989   27.7897  -70.5960 C.ar      11 UNK        -0.0830 
     12 C12       -76.4194   28.5771  -71.4511 C.ar      11 UNK        -0.1021 
     13 C13       -76.9542   29.7129  -72.0704 C.ar      11 UNK        -0.0753 
     14 C14       -78.2911   30.0503  -71.8386 C.ar      11 UNK        -0.0933 
     15 C15       -76.1086   30.5562  -73.0192 C.3       11 UNK         0.0166 
     16 S16       -74.4341   30.8816  -72.3769 S.3       11 UNK        -0.2615 
     17 C17       -73.5758   31.4869  -73.8724 C.3       11 UNK        -0.0865 
     18 CA        -73.2278   30.3801  -74.9193 C.3       10 UNK         0.0862 
     19 C         -72.4214   30.9389  -76.1322 C.2       10 UNK         0.5551 
     20 N         -72.8840   32.0239  -76.7411 N.am      10 UNK        -0.7319 
     21 O         -71.3952   30.4033  -76.5474 O.2       10 UNK        -0.5018 
     22 N         -72.6479   29.1649  -74.3209 N.am      10 UNK        -0.4509 
     23 C         -71.4977   29.0875  -73.6395 C.2       10 UNK         0.4899 
     24 O         -70.7482   30.0417  -73.4268 O.2       10 UNK        -0.4839 
     25 CA        -71.1251   27.7118  -73.0737 C.3       9 UNK         0.0222 
     26 CB        -71.8534   27.4755  -71.7388 C.3       9 UNK        -0.1966 
     27 N         -71.4578   26.6275  -74.0013 N.am      9 UNK        -0.4218 
     28 C         -70.5601   25.9261  -74.7042 C.2       9 UNK         0.5020 
     29 O         -69.3512   26.1649  -74.7107 O.2       9 UNK        -0.5274 
     30 CA        -71.0827   24.7160  -75.4947 C.3       8 UNK         0.0270 
     31 CB        -71.3997   23.5509  -74.5419 C.3       8 UNK        -0.1976 
     32 N         -72.2510   25.0013  -76.3310 N.am      8 UNK        -0.4313 
     33 C         -72.2019   25.6805  -77.4860 C.2       8 UNK         0.5041 
     34 O         -71.1829   26.2173  -77.9222 O.2       8 UNK        -0.5577 
     35 CA        -73.4938   25.7376  -78.3200 C.3       7 UNK         0.0284 
     36 CB        -73.7618   24.3901  -79.0109 C.3       7 UNK        -0.1958 
     37 N         -74.6556   26.1205  -77.5202 N.am      7 UNK        -0.4454 
     38 C         -74.9045   27.3708  -77.1097 C.2       7 UNK         0.5089 
     39 O         -74.2384   28.3477  -77.4483 O.2       7 UNK        -0.5125 
     40 CA        -76.0782   27.5687  -76.1340 C.3       6 UNK         0.0408 
     41 CB        -77.3909   27.8102  -76.8931 C.3       6 UNK        -0.1791 
     42 N         -76.2458   26.4575  -75.1962 N.am      6 UNK        -0.4762 
     43 C         -75.3280   26.0627  -74.3021 C.2       6 UNK         0.5007 
     44 O         -74.2487   26.6332  -74.1381 O.2       6 UNK        -0.5032 
     45 CA        -75.6323   24.7704  -73.5185 C.3       5 UNK         0.0783 
     46 C46       -76.4707   25.0312  -72.2454 C.3       11 UNK        -0.0857 
     47 S47       -75.4267   25.6073  -70.8672 S.3       11 UNK        -0.2512 
     48 C48       -76.6214   26.5697  -69.8808 C.3       11 UNK         0.0225 
     49 N         -76.2515   23.7587  -74.3770 N.am      5 UNK        -0.4615 
     50 C         -75.6052   23.0976  -75.3455 C.2       4 UNK         0.5053 
     51 O         -74.4175   23.2706  -75.6140 O.2       4 UNK        -0.5105 
     52 CA        -76.4334   22.1083  -76.1796 C.3       4 UNK         0.0263 
     53 CB        -76.6117   20.7791  -75.4290 C.3       4 UNK        -0.1981 
     54 N         -77.7433   22.6491  -76.5489 N.am      4 UNK        -0.4224 
     55 C         -77.9180   23.6955  -77.3680 C.2       3 UNK         0.4895 
     56 O         -76.9964   24.2907  -77.9261 O.2       3 UNK        -0.5091 
     57 CA        -79.3616   24.1830  -77.5732 C.3       3 UNK         0.0250 
     58 CB        -80.0516   23.3701  -78.6803 C.3       3 UNK        -0.1996 
     59 N         -80.1917   24.1682  -76.3618 N.am      3 UNK        -0.4254 
     60 C         -79.9081   24.8185  -75.2243 C.2       2 UNK         0.5004 
     61 O         -78.8491   25.4110  -75.0132 O.2       2 UNK        -0.5226 
     62 CA        -80.9908   24.8299  -74.1354 C.3       2 UNK         0.0269 
     63 CB        -80.4575   24.2268  -72.8248 C.3       2 UNK        -0.1926 
     64 N         -81.4323   26.2031  -73.8882 N.am      2 UNK        -0.4687 
     65 C         -82.1439   26.9458  -74.7471 C.2       1 UNK         0.5165 
     66 O         -82.6043   26.4982  -75.7992 O.2       1 UNK        -0.5079 
     67 H67       -86.1459   28.8167  -73.0687 H         1 UNK         0.0900 
     68 H68       -86.8438   28.2066  -74.5703 H         1 UNK         0.0900 
     69 H69       -86.6182   29.9430  -74.3421 H         1 UNK         0.0900 
     70 H70       -83.9376   28.4933  -72.9785 H         1 UNK         0.2959 
     71 H71       -82.2189   28.9782  -75.3141 H         1 UNK         0.1079 
     72 H72       -80.3488   28.7715  -73.6291 H         1 UNK         0.0837 
     73 H73       -81.4338   30.1061  -73.3963 H         1 UNK         0.0837 
     74 H74       -80.7391   30.6689  -71.0292 H         1 UNK         0.0685 
     75 H75       -80.7439   29.5774  -69.6675 H         1 UNK         0.0685 
     76 H76       -79.1457   27.5502  -69.7102 H         1 UNK         0.1434 
     77 H77       -75.3885   28.3089  -71.6358 H         1 UNK         0.1329 
     78 H78       -78.7183   30.9183  -72.3220 H         1 UNK         0.1335 
     79 H79       -76.0424   30.0305  -73.9687 H         1 UNK         0.0680 
     80 H80       -76.5925   31.5123  -73.2245 H         1 UNK         0.0680 
     81 H81       -72.6634   31.9880  -73.5445 H         1 UNK         0.1032 
     82 H82       -74.1943   32.2646  -74.3224 H         1 UNK         0.1032 
     83 H83       -74.1668   30.0420  -75.3524 H         1 UNK         0.0461 
     84 H84       -72.3762   32.3895  -77.5314 H         1 UNK         0.3453 
     85 H85       -73.7371   32.4718  -76.4474 H         1 UNK         0.3453 
     86 H86       -73.2001   28.3213  -74.4246 H         1 UNK         0.2984 
     87 H87       -70.0528   27.7185  -72.8676 H         1 UNK         0.0554 
     88 H88       -71.5647   26.5243  -71.2918 H         1 UNK         0.0847 
     89 H89       -72.9373   27.4708  -71.8617 H         1 UNK         0.0847 
     90 H90       -71.6129   28.2593  -71.0193 H         1 UNK         0.0847 
     91 H91       -72.4470   26.4047  -74.0941 H         1 UNK         0.3141 
     92 H92       -70.2766   24.3869  -76.1544 H         1 UNK         0.0743 
     93 H93       -70.5352   23.3040  -73.9240 H         1 UNK         0.0784 
     94 H94       -72.2244   23.7897  -73.8694 H         1 UNK         0.0784 
     95 H95       -71.6701   22.6506  -75.0941 H         1 UNK         0.0784 
     96 H96       -73.1190   24.5369  -76.0708 H         1 UNK         0.3213 
     97 H97       -73.3515   26.4884  -79.1008 H         1 UNK         0.0855 
     98 H98       -72.9115   24.0905  -79.6249 H         1 UNK         0.0814 
     99 H99       -74.6309   24.4491  -79.6665 H         1 UNK         0.0814 
    100 H100      -73.9434   23.5911  -78.2916 H         1 UNK         0.0814 
    101 H101      -75.3066   25.3862  -77.2645 H         1 UNK         0.3105 
    102 H102      -75.8657   28.4575  -75.5431 H         1 UNK         0.0547 
    103 H103      -77.3074   28.6775  -77.5491 H         1 UNK         0.0837 
    104 H104      -77.6577   26.9560  -77.5147 H         1 UNK         0.0837 
    105 H105      -78.2177   27.9979  -76.2078 H         1 UNK         0.0837 
    106 H106      -77.1372   25.9633  -75.2277 H         1 UNK         0.3020 
    107 H107      -74.6682   24.3597  -73.2084 H         1 UNK         0.1245 
    108 H108      -76.9506   24.1101  -71.9108 H         1 UNK         0.0781 
    109 H109      -77.2805   25.7363  -72.4436 H         1 UNK         0.0781 
    110 H110      -76.1259   26.9078  -68.9700 H         1 UNK         0.0836 
    111 H111      -77.4216   25.8982  -69.5651 H         1 UNK         0.0836 
    112 H112      -77.2452   23.6190  -74.2688 H         1 UNK         0.3022 
    113 H113      -75.8800   21.9083  -77.0999 H         1 UNK         0.0747 
    114 H114      -77.1251   20.0415  -76.0461 H         1 UNK         0.0793 
    115 H115      -75.6445   20.3537  -75.1567 H         1 UNK         0.0793 
    116 H116      -77.1835   20.9039  -74.5086 H         1 UNK         0.0793 
    117 H117      -78.5576   22.2183  -76.1359 H         1 UNK         0.3047 
    118 H118      -79.3050   25.2210  -77.9063 H         1 UNK         0.0822 
    119 H119      -81.0312   23.7821  -78.9237 H         1 UNK         0.0807 
    120 H120      -80.1872   22.3267  -78.3930 H         1 UNK         0.0807 
    121 H121      -79.4617   23.3814  -79.5982 H         1 UNK         0.0807 
    122 H122      -81.0926   23.7192  -76.4467 H         1 UNK         0.2946 
    123 H123      -81.8484   24.2398  -74.4665 H         1 UNK         0.1144 
    124 H124      -80.1044   23.2062  -72.9781 H         1 UNK         0.0793 
    125 H125      -81.2356   24.1889  -72.0622 H         1 UNK         0.0793 
    126 H126      -79.6249   24.8047  -72.4218 H         1 UNK         0.0793 
    127 H127      -81.0921   26.6487  -73.0462 H         1 UNK         0.2896 
@<TRIPOS>BOND
     1    1    2 1    
     2    1   67 1    
     3    1   68 1    
     4    1   69 1    
     5    2    3 2    
     6    2    4 am   BACKBONE|DICT|INTERRES
     7    4    5 1    
     8    4   70 1    
     9    5    6 1    
    10    5   65 1    
    11    5   71 1    
    12    6    7 1    
    13    6   72 1    
    14    6   73 1    
    15    7    8 1    
    16    8    9 1    
    17    8   74 1    
    18    8   75 1    
    19    9   10 ar   
    20    9   14 ar   
    21   10   11 ar   
    22   10   76 1    
    23   11   12 ar   
    24   11   48 1    
    25   12   13 ar   
    26   12   77 1    
    27   13   14 ar   
    28   13   15 1    
    29   14   78 1    
    30   15   16 1    
    31   15   79 1    
    32   15   80 1    
    33   16   17 1    
    34   17   18 1    
    35   17   81 1    
    36   17   82 1    
    37   18   19 1    
    38   18   22 1    
    39   18   83 1    
    40   19   20 am   BACKBONE|DICT|INTERRES
    41   19   21 2    
    42   20   84 1    
    43   20   85 1    
    44   22   23 am   BACKBONE|DICT|INTERRES
    45   22   86 1    
    46   23   24 2    
    47   23   25 1    
    48   25   26 1    
    49   25   27 1    
    50   25   87 1    
    51   26   88 1    
    52   26   89 1    
    53   26   90 1    
    54   27   28 am   BACKBONE|DICT|INTERRES
    55   27   91 1    
    56   28   29 2    
    57   28   30 1    
    58   30   31 1    
    59   30   32 1    
    60   30   92 1    
    61   31   93 1    
    62   31   94 1    
    63   31   95 1    
    64   32   33 am   BACKBONE|DICT|INTERRES
    65   32   96 1    
    66   33   34 2    
    67   33   35 1    
    68   35   36 1    
    69   35   37 1    
    70   35   97 1    
    71   36   98 1    
    72   36   99 1    
    73   36  100 1    
    74   37   38 am   BACKBONE|DICT|INTERRES
    75   37  101 1    
    76   38   39 2    
    77   38   40 1    
    78   40   41 1    
    79   40   42 1    
    80   40  102 1    
    81   41  103 1    
    82   41  104 1    
    83   41  105 1    
    84   42   43 am   BACKBONE|DICT|INTERRES
    85   42  106 1    
    86   43   44 2    
    87   43   45 1    
    88   45   46 1    
    89   45   49 1    
    90   45  107 1    
    91   46   47 1    
    92   46  108 1    
    93   46  109 1    
    94   47   48 1    
    95   48  110 1    
    96   48  111 1    
    97   49   50 am   BACKBONE|DICT|INTERRES
    98   49  112 1    
    99   50   51 2    
   100   50   52 1    
   101   52   53 1    
   102   52   54 1    
   103   52  113 1    
   104   53  114 1    
   105   53  115 1    
   106   53  116 1    
   107   54   55 am   BACKBONE|DICT|INTERRES
   108   54  117 1    
   109   55   56 2    
   110   55   57 1    
   111   57   58 1    
   112   57   59 1    
   113   57  118 1    
   114   58  119 1    
   115   58  120 1    
   116   58  121 1    
   117   59   60 am   BACKBONE|DICT|INTERRES
   118   59  122 1    
   119   60   61 2    
   120   60   62 1    
   121   62   63 1    
   122   62   64 1    
   123   62  123 1    
   124   63  124 1    
   125   63  125 1    
   126   63  126 1    
   127   64   65 am   BACKBONE|DICT|INTERRES
   128   64  127 1    
   129   65   66 2    
@<TRIPOS>SUBSTRUCTURE
     1 UNK         1 GROUP             0       ****    0 ROOT    
