@<TRIPOS>MOLECULE
3R135
127   129    1
SMALL
USER_CHARGES


@<TRIPOS>ATOM
      1 CA        -84.1879   26.9978  -70.9554 C.3       0 UNK        -0.1998 
      2 C         -83.7757   27.4192  -72.3578 C.2       0 UNK         0.4909 
      3 O         -84.5978   27.3852  -73.2739 O.2       0 UNK        -0.5240 
      4 N         -82.5090   27.8197  -72.5289 N.am      1 UNK        -0.4739 
      5 CA        -81.9256   28.2409  -73.8105 C.3       1 UNK         0.0864 
      6 C6        -80.5823   28.9869  -73.6174 C.3       11 UNK        -0.0881 
      7 S7        -80.7763   30.5633  -72.7105 S.3       11 UNK        -0.2682 
      8 C8        -80.4286   30.1134  -70.9759 C.3       11 UNK         0.0289 
      9 C9        -78.9791   29.7047  -70.7626 C.ar      11 UNK        -0.0687 
     10 C10       -78.6288   28.3534  -70.7075 C.ar      11 UNK        -0.0823 
     11 C11       -77.2919   27.9669  -70.5657 C.ar      11 UNK        -0.0830 
     12 C12       -76.3076   28.9513  -70.4236 C.ar      11 UNK        -0.1021 
     13 C13       -76.6505   30.3075  -70.4390 C.ar      11 UNK        -0.0753 
     14 C14       -77.9869   30.6774  -70.6163 C.ar      11 UNK        -0.0933 
     15 C15       -75.5864   31.3793  -70.2517 C.3       11 UNK         0.0166 
     16 S16       -75.1518   32.1821  -71.8259 S.3       11 UNK        -0.2615 
     17 C17       -74.1337   30.8962  -72.6273 C.3       11 UNK        -0.0865 
     18 CA        -72.8778   31.4821  -73.3433 C.3       10 UNK         0.0862 
     19 C         -71.6607   31.7536  -72.4035 C.2       10 UNK         0.5551 
     20 N         -71.8965   32.1870  -71.1730 N.am      10 UNK        -0.7319 
     21 O         -70.5007   31.6278  -72.7931 O.2       10 UNK        -0.5018 
     22 N         -72.5333   30.7107  -74.5478 N.am      10 UNK        -0.4509 
     23 C         -72.1231   29.4362  -74.5724 C.2       10 UNK         0.4899 
     24 O         -71.9890   28.7369  -73.5653 O.2       10 UNK        -0.4839 
     25 CA        -71.8489   28.8654  -75.9749 C.3       9 UNK         0.0222 
     26 CB        -70.5568   29.4371  -76.5957 C.3       9 UNK        -0.1966 
     27 N         -71.8815   27.3998  -75.9900 N.am      9 UNK        -0.4218 
     28 C         -70.9613   26.5202  -75.5677 C.2       9 UNK         0.5020 
     29 O         -69.8279   26.8156  -75.1850 O.2       9 UNK        -0.5274 
     30 CA        -71.3790   25.0371  -75.5677 C.3       8 UNK         0.0270 
     31 CB        -71.8674   24.6249  -74.1695 C.3       8 UNK        -0.1976 
     32 N         -72.4130   24.7137  -76.5579 N.am      8 UNK        -0.4313 
     33 C         -72.2157   24.7040  -77.8845 C.2       8 UNK         0.5041 
     34 O         -71.1261   24.9228  -78.4159 O.2       8 UNK        -0.5577 
     35 CA        -73.4369   24.4100  -78.7725 C.3       7 UNK         0.0284 
     36 CB        -73.7203   22.9000  -78.8266 C.3       7 UNK        -0.1958 
     37 N         -74.6411   25.1249  -78.3429 N.am      7 UNK        -0.4454 
     38 C         -74.8041   26.4547  -78.4027 C.2       7 UNK         0.5089 
     39 O         -73.9715   27.2287  -78.8748 O.2       7 UNK        -0.5125 
     40 CA        -76.1013   27.0249  -77.7986 C.3       6 UNK         0.0408 
     41 CB        -77.2684   26.9141  -78.7914 C.3       6 UNK        -0.1791 
     42 N         -76.4629   26.3879  -76.5292 N.am      6 UNK        -0.4762 
     43 C         -75.7105   26.4390  -75.4196 C.2       6 UNK         0.5007 
     44 O         -74.6612   27.0737  -75.3365 O.2       6 UNK        -0.5032 
     45 CA        -76.1820   25.6066  -74.2157 C.3       5 UNK         0.0783 
     46 C46       -77.2220   26.3980  -73.3906 C.3       11 UNK        -0.0857 
     47 S47       -77.7360   25.5189  -71.8770 S.3       11 UNK        -0.2512 
     48 C48       -76.9004   26.4907  -70.5728 C.3       11 UNK         0.0225 
     49 N         -76.6705   24.2935  -74.6459 N.am      5 UNK        -0.4615 
     50 C         -75.8956   23.3276  -75.1581 C.2       4 UNK         0.5053 
     51 O         -74.6765   23.4278  -75.2900 O.2       4 UNK        -0.5105 
     52 CA        -76.6054   22.0558  -75.6514 C.3       4 UNK         0.0263 
     53 CB        -76.8943   21.1077  -74.4770 C.3       4 UNK        -0.1981 
     54 N         -77.8502   22.3495  -76.3652 N.am      4 UNK        -0.4224 
     55 C         -77.9218   23.0305  -77.5186 C.2       3 UNK         0.4895 
     56 O         -76.9369   23.4120  -78.1487 O.2       3 UNK        -0.5091 
     57 CA        -79.3270   23.3937  -78.0307 C.3       3 UNK         0.0250 
     58 CB        -79.8588   22.2966  -78.9661 C.3       3 UNK        -0.1996 
     59 N         -80.2982   23.6404  -76.9583 N.am      3 UNK        -0.4254 
     60 C         -80.1814   24.5950  -76.0239 C.2       2 UNK         0.5004 
     61 O         -79.2314   25.3793  -75.9626 O.2       2 UNK        -0.5226 
     62 CA        -81.2702   24.6046  -74.9370 C.3       2 UNK         0.0269 
     63 CB        -80.9833   23.5081  -73.8962 C.3       2 UNK        -0.1926 
     64 N         -81.3945   25.8827  -74.2327 N.am      2 UNK        -0.4687 
     65 C         -81.7642   27.0501  -74.7803 C.2       1 UNK         0.5165 
     66 O         -82.0204   27.2000  -75.9761 O.2       1 UNK        -0.5079 
     67 H67       -83.3672   27.0863  -70.2437 H         1 UNK         0.0900 
     68 H68       -85.0100   27.6206  -70.6033 H         1 UNK         0.0900 
     69 H69       -84.5231   25.9609  -70.9589 H         1 UNK         0.0900 
     70 H70       -81.8867   27.8375  -71.7358 H         1 UNK         0.2959 
     71 H71       -82.6283   28.9325  -74.2818 H         1 UNK         0.1079 
     72 H72       -80.1507   29.2353  -74.5892 H         1 UNK         0.0837 
     73 H73       -79.8467   28.3502  -73.1270 H         1 UNK         0.0837 
     74 H74       -80.6554   30.9736  -70.3442 H         1 UNK         0.0685 
     75 H75       -81.1050   29.3222  -70.6528 H         1 UNK         0.0685 
     76 H76       -79.3949   27.5973  -70.8061 H         1 UNK         0.1434 
     77 H77       -75.2726   28.6630  -70.2993 H         1 UNK         0.1329 
     78 H78       -78.2538   31.7252  -70.6476 H         1 UNK         0.1335 
     79 H79       -74.6913   30.9651  -69.7848 H         1 UNK         0.0680 
     80 H80       -75.9613   32.1392  -69.5644 H         1 UNK         0.0680 
     81 H81       -73.8452   30.1224  -71.9138 H         1 UNK         0.1032 
     82 H82       -74.7829   30.3960  -73.3481 H         1 UNK         0.1032 
     83 H83       -73.1443   32.4631  -73.7384 H         1 UNK         0.0461 
     84 H84       -72.8445   32.3395  -70.8635 H         1 UNK         0.3453 
     85 H85       -71.1219   32.3873  -70.5600 H         1 UNK         0.3453 
     86 H86       -72.5868   31.2193  -75.4185 H         1 UNK         0.2984 
     87 H87       -72.6832   29.1668  -76.6105 H         1 UNK         0.0554 
     88 H88       -70.6466   30.5103  -76.7661 H         1 UNK         0.0847 
     89 H89       -70.3394   28.9744  -77.5584 H         1 UNK         0.0847 
     90 H90       -69.6925   29.2901  -75.9474 H         1 UNK         0.0847 
     91 H91       -72.8074   27.0224  -76.1630 H         1 UNK         0.3141 
     92 H92       -70.4915   24.4468  -75.8052 H         1 UNK         0.0743 
     93 H93       -72.7640   25.1746  -73.8804 H         1 UNK         0.0784 
     94 H94       -72.0969   23.5600  -74.1258 H         1 UNK         0.0784 
     95 H95       -71.1054   24.8242  -73.4147 H         1 UNK         0.0784 
     96 H96       -73.3237   24.4412  -76.1941 H         1 UNK         0.3213 
     97 H97       -73.1966   24.7443  -79.7841 H         1 UNK         0.0855 
     98 H98       -74.0011   22.5051  -77.8498 H         1 UNK         0.0814 
     99 H99       -72.8406   22.3490  -79.1619 H         1 UNK         0.0814 
    100 H100      -74.5289   22.6740  -79.5220 H         1 UNK         0.0814 
    101 H101      -75.4173   24.5562  -78.0125 H         1 UNK         0.3105 
    102 H102      -75.9346   28.0847  -77.5944 H         1 UNK         0.0547 
    103 H103      -77.0543   27.4724  -79.7036 H         1 UNK         0.0837 
    104 H104      -77.4568   25.8814  -79.0826 H         1 UNK         0.0837 
    105 H105      -78.1896   27.3184  -78.3712 H         1 UNK         0.0837 
    106 H106      -77.3417   25.8787  -76.4929 H         1 UNK         0.3020 
    107 H107      -75.3074   25.4414  -73.5823 H         1 UNK         0.1245 
    108 H108      -78.1175   26.5973  -73.9802 H         1 UNK         0.0781 
    109 H109      -76.8216   27.3782  -73.1266 H         1 UNK         0.0781 
    110 H110      -75.8223   26.3794  -70.6992 H         1 UNK         0.0836 
    111 H111      -77.1439   26.0586  -69.6015 H         1 UNK         0.0836 
    112 H112      -77.6712   24.1647  -74.6203 H         1 UNK         0.3022 
    113 H113      -75.9324   21.5478  -76.3454 H         1 UNK         0.0747 
    114 H114      -77.3261   20.1681  -74.8225 H         1 UNK         0.0793 
    115 H115      -75.9764   20.8624  -73.9408 H         1 UNK         0.0793 
    116 H116      -77.5837   21.5504  -73.7568 H         1 UNK         0.0793 
    117 H117      -78.7113   22.0627  -75.9242 H         1 UNK         0.3047 
    118 H118      -79.2360   24.3169  -78.6060 H         1 UNK         0.0822 
    119 H119      -80.8110   22.5826  -79.4132 H         1 UNK         0.0807 
    120 H120      -80.0031   21.3510  -78.4419 H         1 UNK         0.0807 
    121 H121      -79.1619   22.1120  -79.7852 H         1 UNK         0.0807 
    122 H122      -81.1023   23.0293  -76.9324 H         1 UNK         0.2946 
    123 H123      -82.2300   24.3999  -75.4167 H         1 UNK         0.1144 
    124 H124      -81.7700   23.4613  -73.1427 H         1 UNK         0.0793 
    125 H125      -80.0370   23.6795  -73.3806 H         1 UNK         0.0793 
    126 H126      -80.9289   22.5223  -74.3598 H         1 UNK         0.0793 
    127 H127      -81.2024   25.8677  -73.2426 H         1 UNK         0.2896 
@<TRIPOS>BOND
     1    1    2 1    
     2    1   67 1    
     3    1   68 1    
     4    1   69 1    
     5    2    3 2    
     6    2    4 am   BACKBONE|DICT|INTERRES
     7    4    5 1    
     8    4   70 1    
     9    5    6 1    
    10    5   65 1    
    11    5   71 1    
    12    6    7 1    
    13    6   72 1    
    14    6   73 1    
    15    7    8 1    
    16    8    9 1    
    17    8   74 1    
    18    8   75 1    
    19    9   10 ar   
    20    9   14 ar   
    21   10   11 ar   
    22   10   76 1    
    23   11   12 ar   
    24   11   48 1    
    25   12   13 ar   
    26   12   77 1    
    27   13   14 ar   
    28   13   15 1    
    29   14   78 1    
    30   15   16 1    
    31   15   79 1    
    32   15   80 1    
    33   16   17 1    
    34   17   18 1    
    35   17   81 1    
    36   17   82 1    
    37   18   19 1    
    38   18   22 1    
    39   18   83 1    
    40   19   20 am   BACKBONE|DICT|INTERRES
    41   19   21 2    
    42   20   84 1    
    43   20   85 1    
    44   22   23 am   BACKBONE|DICT|INTERRES
    45   22   86 1    
    46   23   24 2    
    47   23   25 1    
    48   25   26 1    
    49   25   27 1    
    50   25   87 1    
    51   26   88 1    
    52   26   89 1    
    53   26   90 1    
    54   27   28 am   BACKBONE|DICT|INTERRES
    55   27   91 1    
    56   28   29 2    
    57   28   30 1    
    58   30   31 1    
    59   30   32 1    
    60   30   92 1    
    61   31   93 1    
    62   31   94 1    
    63   31   95 1    
    64   32   33 am   BACKBONE|DICT|INTERRES
    65   32   96 1    
    66   33   34 2    
    67   33   35 1    
    68   35   36 1    
    69   35   37 1    
    70   35   97 1    
    71   36   98 1    
    72   36   99 1    
    73   36  100 1    
    74   37   38 am   BACKBONE|DICT|INTERRES
    75   37  101 1    
    76   38   39 2    
    77   38   40 1    
    78   40   41 1    
    79   40   42 1    
    80   40  102 1    
    81   41  103 1    
    82   41  104 1    
    83   41  105 1    
    84   42   43 am   BACKBONE|DICT|INTERRES
    85   42  106 1    
    86   43   44 2    
    87   43   45 1    
    88   45   46 1    
    89   45   49 1    
    90   45  107 1    
    91   46   47 1    
    92   46  108 1    
    93   46  109 1    
    94   47   48 1    
    95   48  110 1    
    96   48  111 1    
    97   49   50 am   BACKBONE|DICT|INTERRES
    98   49  112 1    
    99   50   51 2    
   100   50   52 1    
   101   52   53 1    
   102   52   54 1    
   103   52  113 1    
   104   53  114 1    
   105   53  115 1    
   106   53  116 1    
   107   54   55 am   BACKBONE|DICT|INTERRES
   108   54  117 1    
   109   55   56 2    
   110   55   57 1    
   111   57   58 1    
   112   57   59 1    
   113   57  118 1    
   114   58  119 1    
   115   58  120 1    
   116   58  121 1    
   117   59   60 am   BACKBONE|DICT|INTERRES
   118   59  122 1    
   119   60   61 2    
   120   60   62 1    
   121   62   63 1    
   122   62   64 1    
   123   62  123 1    
   124   63  124 1    
   125   63  125 1    
   126   63  126 1    
   127   64   65 am   BACKBONE|DICT|INTERRES
   128   64  127 1    
   129   65   66 2    
@<TRIPOS>SUBSTRUCTURE
     1 UNK         1 GROUP             0       ****    0 ROOT    
