@<TRIPOS>MOLECULE
3R135
127   129    1
SMALL
USER_CHARGES


@<TRIPOS>ATOM
      1 CA        -79.9589   28.0641  -78.7941 C.3       0 UNK        -0.1998 
      2 C         -80.5546   29.4097  -78.3834 C.2       0 UNK         0.4909 
      3 O         -81.1440   30.0881  -79.2225 O.2       0 UNK        -0.5240 
      4 N         -80.4200   29.8499  -77.1238 N.am      1 UNK        -0.4739 
      5 CA        -79.8286   29.1255  -75.9933 C.3       1 UNK         0.0864 
      6 C6        -79.4064   30.1011  -74.8666 C.3       11 UNK        -0.0881 
      7 S7        -77.9974   29.4590  -73.9068 S.3       11 UNK        -0.2682 
      8 C8        -78.7949   29.0676  -72.3203 C.3       11 UNK         0.0289 
      9 C9        -77.8070   28.3801  -71.3949 C.ar      11 UNK        -0.0687 
     10 C10       -77.5268   27.0224  -71.5671 C.ar      11 UNK        -0.0823 
     11 C11       -76.5799   26.3848  -70.7621 C.ar      11 UNK        -0.0830 
     12 C12       -75.9168   27.1151  -69.7724 C.ar      11 UNK        -0.1021 
     13 C13       -76.1847   28.4757  -69.5938 C.ar      11 UNK        -0.0753 
     14 C14       -77.1454   29.1006  -70.3959 C.ar      11 UNK        -0.0933 
     15 C15       -75.4087   29.2690  -68.5536 C.3       11 UNK         0.0166 
     16 S16       -73.7196   29.6437  -69.1279 S.3       11 UNK        -0.2615 
     17 C17       -74.0088   30.9921  -70.3263 C.3       11 UNK        -0.0865 
     18 CA        -74.1675   30.5043  -71.7911 C.3       10 UNK         0.0862 
     19 C         -74.4364   31.6980  -72.7443 C.2       10 UNK         0.5551 
     20 N         -75.6160   31.7759  -73.3423 N.am      10 UNK        -0.7319 
     21 O         -73.5880   32.5711  -72.9156 O.2       10 UNK        -0.5018 
     22 N         -73.0138   29.7216  -72.2521 N.am      10 UNK        -0.4509 
     23 C         -73.0676   28.8797  -73.2884 C.2       10 UNK         0.4899 
     24 O         -74.1063   28.6001  -73.8961 O.2       10 UNK        -0.4839 
     25 CA        -71.7428   28.2390  -73.7255 C.3       9 UNK         0.0222 
     26 CB        -71.3330   27.0946  -72.7831 C.3       9 UNK        -0.1966 
     27 N         -71.9615   27.7149  -75.0663 N.am      9 UNK        -0.4218 
     28 C         -71.1845   27.8847  -76.1395 C.2       9 UNK         0.5020 
     29 O         -70.0328   28.3193  -76.1003 O.2       9 UNK        -0.5274 
     30 CA        -71.8278   27.5396  -77.4963 C.3       8 UNK         0.0270 
     31 CB        -71.4252   26.1259  -77.9459 C.3       8 UNK        -0.1976 
     32 N         -73.2933   27.6472  -77.4475 N.am      8 UNK        -0.4313 
     33 C         -73.9614   28.8137  -77.4660 C.2       8 UNK         0.5041 
     34 O         -73.4050   29.8967  -77.6560 O.2       8 UNK        -0.5577 
     35 CA        -75.4812   28.7981  -77.1819 C.3       7 UNK         0.0284 
     36 CB        -76.2600   29.7833  -78.0806 C.3       7 UNK        -0.1958 
     37 N         -76.0923   27.4627  -77.1919 N.am      7 UNK        -0.4454 
     38 C         -76.2151   26.6207  -78.2295 C.2       7 UNK         0.5089 
     39 O         -75.8983   26.9023  -79.3853 O.2       7 UNK        -0.5125 
     40 CA        -76.7616   25.2144  -77.9025 C.3       6 UNK         0.0408 
     41 CB        -76.3026   24.1512  -78.9208 C.3       6 UNK        -0.1791 
     42 N         -76.4720   24.7621  -76.5331 N.am      6 UNK        -0.4762 
     43 C         -75.2681   24.6373  -75.9496 C.2       6 UNK         0.5007 
     44 O         -74.2176   24.9711  -76.4978 O.2       6 UNK        -0.5032 
     45 CA        -75.2119   24.0917  -74.5108 C.3       5 UNK         0.0783 
     46 C46       -75.0404   25.2570  -73.5077 C.3       11 UNK        -0.0857 
     47 S47       -74.6656   24.6788  -71.8182 S.3       11 UNK        -0.2512 
     48 C48       -76.2605   24.9125  -70.9719 C.3       11 UNK         0.0225 
     49 N         -76.3824   23.2582  -74.2032 N.am      5 UNK        -0.4615 
     50 C         -76.3190   21.9773  -73.8122 C.2       4 UNK         0.5053 
     51 O         -75.2661   21.3571  -73.6596 O.2       4 UNK        -0.5105 
     52 CA        -77.6499   21.2482  -73.5405 C.3       4 UNK         0.0263 
     53 CB        -78.0088   21.3164  -72.0470 C.3       4 UNK        -0.1981 
     54 N         -78.7731   21.7588  -74.3289 N.am      4 UNK        -0.4224 
     55 C         -78.8768   21.6622  -75.6613 C.2       3 UNK         0.4895 
     56 O         -78.0770   21.0450  -76.3653 O.2       3 UNK        -0.5091 
     57 CA        -80.0573   22.3864  -76.3368 C.3       3 UNK         0.0250 
     58 CB        -81.1536   21.3762  -76.7140 C.3       3 UNK        -0.1996 
     59 N         -80.6676   23.4929  -75.5826 N.am      3 UNK        -0.4254 
     60 C         -80.0305   24.5727  -75.1109 C.2       2 UNK         0.5004 
     61 O         -78.8021   24.6936  -75.0780 O.2       2 UNK        -0.5226 
     62 CA        -80.8994   25.7149  -74.5804 C.3       2 UNK         0.0269 
     63 CB        -81.0738   25.6151  -73.0563 C.3       2 UNK        -0.1926 
     64 N         -80.2141   26.9572  -74.9259 N.am      2 UNK        -0.4687 
     65 C         -80.7874   28.0299  -75.4782 C.2       1 UNK         0.5165 
     66 O         -82.0069   28.1668  -75.6027 O.2       1 UNK        -0.5079 
     67 H67       -78.8804   28.0529  -78.6458 H         1 UNK         0.0900 
     68 H68       -80.1435   27.8752  -79.8516 H         1 UNK         0.0900 
     69 H69       -80.4050   27.2439  -78.2334 H         1 UNK         0.0900 
     70 H70       -80.8519   30.7309  -76.8842 H         1 UNK         0.2959 
     71 H71       -78.9281   28.6330  -76.3645 H         1 UNK         0.1079 
     72 H72       -79.0699   31.0460  -75.2971 H         1 UNK         0.0837 
     73 H73       -80.2424   30.3588  -74.2127 H         1 UNK         0.0837 
     74 H74       -79.1742   29.9848  -71.8670 H         1 UNK         0.0685 
     75 H75       -79.6572   28.4204  -72.4858 H         1 UNK         0.0685 
     76 H76       -78.0250   26.4708  -72.3512 H         1 UNK         0.1434 
     77 H77       -75.1682   26.6308  -69.1599 H         1 UNK         0.1329 
     78 H78       -77.3490   30.1550  -70.2691 H         1 UNK         0.1335 
     79 H79       -75.9286   30.1924  -68.2941 H         1 UNK         0.0680 
     80 H80       -75.3448   28.6870  -67.6330 H         1 UNK         0.0680 
     81 H81       -73.1716   31.6885  -70.2495 H         1 UNK         0.1032 
     82 H82       -74.8910   31.5562  -70.0180 H         1 UNK         0.1032 
     83 H83       -75.0359   29.8471  -71.8252 H         1 UNK         0.0461 
     84 H84       -75.8048   32.5547  -73.9527 H         1 UNK         0.3453 
     85 H85       -76.2983   31.0373  -73.2450 H         1 UNK         0.3453 
     86 H86       -72.1307   29.9130  -71.8030 H         1 UNK         0.2984 
     87 H87       -70.9678   29.0082  -73.7390 H         1 UNK         0.0554 
     88 H88       -70.4137   26.6159  -73.1206 H         1 UNK         0.0847 
     89 H89       -72.1035   26.3264  -72.7160 H         1 UNK         0.0847 
     90 H90       -71.1543   27.4636  -71.7725 H         1 UNK         0.0847 
     91 H91       -72.9183   27.4287  -75.2283 H         1 UNK         0.3141 
     92 H92       -71.4504   28.2497  -78.2354 H         1 UNK         0.0743 
     93 H93       -71.7095   25.3696  -77.2137 H         1 UNK         0.0784 
     94 H94       -71.8880   25.8636  -78.8975 H         1 UNK         0.0784 
     95 H95       -70.3449   26.0557  -78.0795 H         1 UNK         0.0784 
     96 H96       -73.8034   26.7833  -77.2877 H         1 UNK         0.3213 
     97 H97       -75.5823   29.1571  -76.1561 H         1 UNK         0.0855 
     98 H98       -75.8734   30.7977  -77.9748 H         1 UNK         0.0814 
     99 H99       -77.3147   29.8194  -77.8126 H         1 UNK         0.0814 
    100 H100      -76.1866   29.5200  -79.1357 H         1 UNK         0.0814 
    101 H101      -76.3627   27.1080  -76.2855 H         1 UNK         0.3105 
    102 H102      -77.8478   25.2905  -77.9713 H         1 UNK         0.0547 
    103 H103      -76.6322   24.4032  -79.9294 H         1 UNK         0.0837 
    104 H104      -75.2161   24.0603  -78.9465 H         1 UNK         0.0837 
    105 H105      -76.7157   23.1709  -78.6825 H         1 UNK         0.0837 
    106 H106      -77.3003   24.5594  -75.9756 H         1 UNK         0.3020 
    107 H107      -74.3042   23.4850  -74.4713 H         1 UNK         0.1245 
    108 H108      -75.9201   25.9005  -73.5060 H         1 UNK         0.0781 
    109 H109      -74.2088   25.8947  -73.8093 H         1 UNK         0.0781 
    110 H110      -76.2250   24.4085  -70.0051 H         1 UNK         0.0836 
    111 H111      -77.0490   24.4222  -71.5433 H         1 UNK         0.0836 
    112 H112      -77.2929   23.6879  -74.3274 H         1 UNK         0.3022 
    113 H113      -77.5041   20.1991  -73.8071 H         1 UNK         0.0747 
    114 H114      -78.8744   20.6940  -71.8196 H         1 UNK         0.0793 
    115 H115      -77.1837   20.9584  -71.4294 H         1 UNK         0.0793 
    116 H116      -78.2360   22.3343  -71.7302 H         1 UNK         0.0793 
    117 H117      -79.4815   22.2804  -73.8344 H         1 UNK         0.3047 
    118 H118      -79.6634   22.8168  -77.2601 H         1 UNK         0.0822 
    119 H119      -81.9349   21.8415  -77.3154 H         1 UNK         0.0807 
    120 H120      -81.6221   20.9415  -75.8301 H         1 UNK         0.0807 
    121 H121      -80.7444   20.5539  -77.3031 H         1 UNK         0.0807 
    122 H122      -81.6761   23.4743  -75.5254 H         1 UNK         0.2946 
    123 H123      -81.8783   25.6726  -75.0643 H         1 UNK         0.1144 
    124 H124      -81.6349   24.7195  -72.7867 H         1 UNK         0.0793 
    125 H125      -81.6238   26.4710  -72.6649 H         1 UNK         0.0793 
    126 H126      -80.1175   25.5663  -72.5367 H         1 UNK         0.0793 
    127 H127      -79.2053   26.8966  -74.8805 H         1 UNK         0.2896 
@<TRIPOS>BOND
     1    1    2 1    
     2    1   67 1    
     3    1   68 1    
     4    1   69 1    
     5    2    3 2    
     6    2    4 am   BACKBONE|DICT|INTERRES
     7    4    5 1    
     8    4   70 1    
     9    5    6 1    
    10    5   65 1    
    11    5   71 1    
    12    6    7 1    
    13    6   72 1    
    14    6   73 1    
    15    7    8 1    
    16    8    9 1    
    17    8   74 1    
    18    8   75 1    
    19    9   10 ar   
    20    9   14 ar   
    21   10   11 ar   
    22   10   76 1    
    23   11   12 ar   
    24   11   48 1    
    25   12   13 ar   
    26   12   77 1    
    27   13   14 ar   
    28   13   15 1    
    29   14   78 1    
    30   15   16 1    
    31   15   79 1    
    32   15   80 1    
    33   16   17 1    
    34   17   18 1    
    35   17   81 1    
    36   17   82 1    
    37   18   19 1    
    38   18   22 1    
    39   18   83 1    
    40   19   20 am   BACKBONE|DICT|INTERRES
    41   19   21 2    
    42   20   84 1    
    43   20   85 1    
    44   22   23 am   BACKBONE|DICT|INTERRES
    45   22   86 1    
    46   23   24 2    
    47   23   25 1    
    48   25   26 1    
    49   25   27 1    
    50   25   87 1    
    51   26   88 1    
    52   26   89 1    
    53   26   90 1    
    54   27   28 am   BACKBONE|DICT|INTERRES
    55   27   91 1    
    56   28   29 2    
    57   28   30 1    
    58   30   31 1    
    59   30   32 1    
    60   30   92 1    
    61   31   93 1    
    62   31   94 1    
    63   31   95 1    
    64   32   33 am   BACKBONE|DICT|INTERRES
    65   32   96 1    
    66   33   34 2    
    67   33   35 1    
    68   35   36 1    
    69   35   37 1    
    70   35   97 1    
    71   36   98 1    
    72   36   99 1    
    73   36  100 1    
    74   37   38 am   BACKBONE|DICT|INTERRES
    75   37  101 1    
    76   38   39 2    
    77   38   40 1    
    78   40   41 1    
    79   40   42 1    
    80   40  102 1    
    81   41  103 1    
    82   41  104 1    
    83   41  105 1    
    84   42   43 am   BACKBONE|DICT|INTERRES
    85   42  106 1    
    86   43   44 2    
    87   43   45 1    
    88   45   46 1    
    89   45   49 1    
    90   45  107 1    
    91   46   47 1    
    92   46  108 1    
    93   46  109 1    
    94   47   48 1    
    95   48  110 1    
    96   48  111 1    
    97   49   50 am   BACKBONE|DICT|INTERRES
    98   49  112 1    
    99   50   51 2    
   100   50   52 1    
   101   52   53 1    
   102   52   54 1    
   103   52  113 1    
   104   53  114 1    
   105   53  115 1    
   106   53  116 1    
   107   54   55 am   BACKBONE|DICT|INTERRES
   108   54  117 1    
   109   55   56 2    
   110   55   57 1    
   111   57   58 1    
   112   57   59 1    
   113   57  118 1    
   114   58  119 1    
   115   58  120 1    
   116   58  121 1    
   117   59   60 am   BACKBONE|DICT|INTERRES
   118   59  122 1    
   119   60   61 2    
   120   60   62 1    
   121   62   63 1    
   122   62   64 1    
   123   62  123 1    
   124   63  124 1    
   125   63  125 1    
   126   63  126 1    
   127   64   65 am   BACKBONE|DICT|INTERRES
   128   64  127 1    
   129   65   66 2    
@<TRIPOS>SUBSTRUCTURE
     1 UNK         1 GROUP             0       ****    0 ROOT    
