@<TRIPOS>MOLECULE
3R135
127   129    1
SMALL
USER_CHARGES


@<TRIPOS>ATOM
      1 CA        -79.8113   29.1991  -78.9672 C.3       0 UNK        -0.1998 
      2 C         -78.9556   28.3489  -78.0424 C.2       0 UNK         0.4909 
      3 O         -77.8272   28.0007  -78.3949 O.2       0 UNK        -0.5240 
      4 N         -79.4731   28.0106  -76.8548 N.am      1 UNK        -0.4739 
      5 CA        -78.7999   27.1936  -75.8362 C.3       1 UNK         0.0864 
      6 C6        -79.2889   27.5244  -74.4030 C.3       11 UNK        -0.0881 
      7 S7        -78.8684   29.2348  -73.9329 S.3       11 UNK        -0.2682 
      8 C8        -78.6577   29.0896  -72.1289 C.3       11 UNK         0.0289 
      9 C9        -77.3787   28.3654  -71.7207 C.ar      11 UNK        -0.0687 
     10 C10       -77.4444   27.2110  -70.9324 C.ar      11 UNK        -0.0823 
     11 C11       -76.2759   26.5821  -70.4874 C.ar      11 UNK        -0.0830 
     12 C12       -75.0334   27.1141  -70.8452 C.ar      11 UNK        -0.1021 
     13 C13       -74.9527   28.2684  -71.6305 C.ar      11 UNK        -0.0753 
     14 C14       -76.1279   28.8869  -72.0683 C.ar      11 UNK        -0.0933 
     15 C15       -73.5958   28.8584  -71.9829 C.3       11 UNK         0.0166 
     16 S16       -73.0964   30.1171  -70.7724 S.3       11 UNK        -0.2615 
     17 C17       -71.3517   30.3892  -71.2326 C.3       11 UNK        -0.0865 
     18 CA        -71.1075   31.7667  -71.9185 C.3       10 UNK         0.0862 
     19 C         -69.6013   32.1809  -71.9191 C.2       10 UNK         0.5551 
     20 N         -69.1270   32.9436  -72.8970 N.am      10 UNK        -0.7319 
     21 O         -68.8547   31.8380  -71.0053 O.2       10 UNK        -0.5018 
     22 N         -71.7773   31.9020  -73.2293 N.am      10 UNK        -0.4509 
     23 C         -71.4916   31.2029  -74.3362 C.2       10 UNK         0.4899 
     24 O         -70.7040   30.2573  -74.3741 O.2       10 UNK        -0.4839 
     25 CA        -72.2193   31.6372  -75.6140 C.3       9 UNK         0.0222 
     26 CB        -71.4163   31.3185  -76.8910 C.3       9 UNK        -0.1966 
     27 N         -73.5129   30.9693  -75.6598 N.am      9 UNK        -0.4218 
     28 C         -74.6072   31.4066  -76.2880 C.2       9 UNK         0.5020 
     29 O         -74.6469   32.4568  -76.9328 O.2       9 UNK        -0.5274 
     30 CA        -75.8638   30.5144  -76.1771 C.3       8 UNK         0.0270 
     31 CB        -77.1057   31.1717  -76.8085 C.3       8 UNK        -0.1976 
     32 N         -75.6828   29.1690  -76.7431 N.am      8 UNK        -0.4313 
     33 C         -74.9182   28.2082  -76.2113 C.2       8 UNK         0.5041 
     34 O         -74.2508   28.3608  -75.1842 O.2       8 UNK        -0.5577 
     35 CA        -74.8672   26.8543  -76.9279 C.3       7 UNK         0.0284 
     36 CB        -73.8462   26.8680  -78.0788 C.3       7 UNK        -0.1958 
     37 N         -74.4803   25.8915  -75.9080 N.am      7 UNK        -0.4454 
     38 C         -74.6234   24.5659  -75.9253 C.2       7 UNK         0.5089 
     39 O         -75.0063   23.9264  -76.9042 O.2       7 UNK        -0.5125 
     40 CA        -74.2799   23.8156  -74.6214 C.3       6 UNK         0.0408 
     41 CB        -73.5100   24.6722  -73.5874 C.3       6 UNK        -0.1791 
     42 N         -75.4581   23.2147  -73.9823 N.am      6 UNK        -0.4762 
     43 C         -76.5882   23.8418  -73.6158 C.2       6 UNK         0.5007 
     44 O         -76.8420   25.0186  -73.8713 O.2       6 UNK        -0.5032 
     45 CA        -77.5744   23.0338  -72.7540 C.3       5 UNK         0.0783 
     46 C46       -77.6770   23.5763  -71.2997 C.3       11 UNK        -0.0857 
     47 S47       -76.0849   23.7896  -70.4265 S.3       11 UNK        -0.2512 
     48 C48       -76.3497   25.3723  -69.5616 C.3       11 UNK         0.0225 
     49 N         -78.8866   23.0286  -73.4026 N.am      5 UNK        -0.4615 
     50 C         -79.8570   22.1532  -73.1096 C.2       4 UNK         0.5053 
     51 O         -79.6860   21.1791  -72.3758 O.2       4 UNK        -0.5105 
     52 CA        -81.2599   22.4002  -73.6845 C.3       4 UNK         0.0263 
     53 CB        -81.9852   23.4879  -72.8746 C.3       4 UNK        -0.1981 
     54 N         -81.2391   22.7831  -75.0960 N.am      4 UNK        -0.4224 
     55 C         -82.0022   22.2347  -76.0537 C.2       3 UNK         0.4895 
     56 O         -82.7892   21.3081  -75.8542 O.2       3 UNK        -0.5091 
     57 CA        -81.9002   22.8172  -77.4795 C.3       3 UNK         0.0250 
     58 CB        -83.0921   23.7462  -77.7636 C.3       3 UNK        -0.1996 
     59 N         -80.6585   23.5511  -77.7289 N.am      3 UNK        -0.4254 
     60 C         -79.4444   22.9911  -77.7973 C.2       2 UNK         0.5004 
     61 O         -79.2560   21.7742  -77.7946 O.2       2 UNK        -0.5226 
     62 CA        -78.2289   23.9339  -77.8430 C.3       2 UNK         0.0269 
     63 CB        -77.6437   23.9920  -79.2632 C.3       2 UNK        -0.1926 
     64 N         -78.4349   25.3086  -77.3640 N.am      2 UNK        -0.4687 
     65 C         -78.9195   25.6940  -76.1749 C.2       1 UNK         0.5165 
     66 O         -79.4610   24.9244  -75.3806 O.2       1 UNK        -0.5079 
     67 H67       -80.7767   29.4398  -78.5227 H         1 UNK         0.0900 
     68 H68       -79.2998   30.1338  -79.1949 H         1 UNK         0.0900 
     69 H69       -79.9894   28.6707  -79.9033 H         1 UNK         0.0900 
     70 H70       -80.4030   28.3226  -76.6128 H         1 UNK         0.2959 
     71 H71       -77.7321   27.4131  -75.8550 H         1 UNK         0.1079 
     72 H72       -78.8268   26.8486  -73.6806 H         1 UNK         0.0837 
     73 H73       -80.3670   27.3816  -74.3123 H         1 UNK         0.0837 
     74 H74       -79.5374   28.5993  -71.7091 H         1 UNK         0.0685 
     75 H75       -78.6372   30.0932  -71.7023 H         1 UNK         0.0685 
     76 H76       -78.4083   26.8178  -70.6405 H         1 UNK         0.1434 
     77 H77       -74.1272   26.6401  -70.4934 H         1 UNK         0.1329 
     78 H78       -76.0692   29.7868  -72.6643 H         1 UNK         0.1335 
     79 H79       -73.6266   29.3258  -72.9655 H         1 UNK         0.0680 
     80 H80       -72.8465   28.0668  -72.0342 H         1 UNK         0.0680 
     81 H81       -70.7853   30.3197  -70.3023 H         1 UNK         0.1032 
     82 H82       -70.9853   29.5722  -71.8550 H         1 UNK         0.1032 
     83 H83       -71.5781   32.5192  -71.2850 H         1 UNK         0.0461 
     84 H84       -69.7279   33.2520  -73.6438 H         1 UNK         0.3453 
     85 H85       -68.1569   33.2161  -72.8835 H         1 UNK         0.3453 
     86 H86       -72.4525   32.6502  -73.2932 H         1 UNK         0.2984 
     87 H87       -72.3701   32.7177  -75.5640 H         1 UNK         0.0554 
     88 H88       -70.4216   31.7639  -76.8485 H         1 UNK         0.0847 
     89 H89       -71.9099   31.7130  -77.7791 H         1 UNK         0.0847 
     90 H90       -71.2888   30.2442  -77.0301 H         1 UNK         0.0847 
     91 H91       -73.5712   30.0545  -75.2102 H         1 UNK         0.3141 
     92 H92       -76.0689   30.4020  -75.1104 H         1 UNK         0.0743 
     93 H93       -77.0269   31.2275  -77.8947 H         1 UNK         0.0784 
     94 H94       -78.0120   30.6223  -76.5590 H         1 UNK         0.0784 
     95 H95       -77.2464   32.1875  -76.4365 H         1 UNK         0.0784 
     96 H96       -76.2269   28.9477  -77.5718 H         1 UNK         0.3213 
     97 H97       -75.8569   26.5971  -77.3057 H         1 UNK         0.0855 
     98 H98       -72.8471   27.1282  -77.7267 H         1 UNK         0.0814 
     99 H99       -74.1266   27.5975  -78.8396 H         1 UNK         0.0814 
    100 H100      -73.7865   25.8967  -78.5699 H         1 UNK         0.0814 
    101 H101      -74.1902   26.3473  -75.0490 H         1 UNK         0.3105 
    102 H102      -73.6289   22.9895  -74.9109 H         1 UNK         0.0547 
    103 H103      -73.2027   24.0690  -72.7331 H         1 UNK         0.0837 
    104 H104      -74.1143   25.4946  -73.2014 H         1 UNK         0.0837 
    105 H105      -72.6027   25.0972  -74.0190 H         1 UNK         0.0837 
    106 H106      -75.3606   22.2359  -73.7505 H         1 UNK         0.3020 
    107 H107      -77.2151   22.0035  -72.7062 H         1 UNK         0.1245 
    108 H108      -78.2899   22.9059  -70.6961 H         1 UNK         0.0781 
    109 H109      -78.2087   24.5275  -71.3099 H         1 UNK         0.0781 
    110 H110      -75.5911   25.4717  -68.7838 H         1 UNK         0.0836 
    111 H111      -77.3075   25.3441  -69.0395 H         1 UNK         0.0836 
    112 H112      -79.0613   23.8047  -74.0402 H         1 UNK         0.3022 
    113 H113      -81.8126   21.4669  -73.5608 H         1 UNK         0.0747 
    114 H114      -83.0184   23.6005  -73.2026 H         1 UNK         0.0793 
    115 H115      -82.0071   23.2377  -71.8131 H         1 UNK         0.0793 
    116 H116      -81.4959   24.4576  -72.9733 H         1 UNK         0.0793 
    117 H117      -80.6092   23.5436  -75.3447 H         1 UNK         0.3047 
    118 H118      -81.9443   21.9786  -78.1778 H         1 UNK         0.0822 
    119 H119      -83.0779   24.1084  -78.7917 H         1 UNK         0.0807 
    120 H120      -83.0957   24.6124  -77.1006 H         1 UNK         0.0807 
    121 H121      -84.0383   23.2225  -77.6200 H         1 UNK         0.0807 
    122 H122      -80.7147   24.5590  -77.7346 H         1 UNK         0.2946 
    123 H123      -77.4870   23.4819  -77.1835 H         1 UNK         0.1144 
    124 H124      -77.4457   22.9906  -79.6482 H         1 UNK         0.0793 
    125 H125      -76.6968   24.5327  -79.2776 H         1 UNK         0.0793 
    126 H126      -78.3242   24.4832  -79.9595 H         1 UNK         0.0793 
    127 H127      -78.0720   26.0455  -77.9601 H         1 UNK         0.2896 
@<TRIPOS>BOND
     1    1    2 1    
     2    1   67 1    
     3    1   68 1    
     4    1   69 1    
     5    2    3 2    
     6    2    4 am   BACKBONE|DICT|INTERRES
     7    4    5 1    
     8    4   70 1    
     9    5    6 1    
    10    5   65 1    
    11    5   71 1    
    12    6    7 1    
    13    6   72 1    
    14    6   73 1    
    15    7    8 1    
    16    8    9 1    
    17    8   74 1    
    18    8   75 1    
    19    9   10 ar   
    20    9   14 ar   
    21   10   11 ar   
    22   10   76 1    
    23   11   12 ar   
    24   11   48 1    
    25   12   13 ar   
    26   12   77 1    
    27   13   14 ar   
    28   13   15 1    
    29   14   78 1    
    30   15   16 1    
    31   15   79 1    
    32   15   80 1    
    33   16   17 1    
    34   17   18 1    
    35   17   81 1    
    36   17   82 1    
    37   18   19 1    
    38   18   22 1    
    39   18   83 1    
    40   19   20 am   BACKBONE|DICT|INTERRES
    41   19   21 2    
    42   20   84 1    
    43   20   85 1    
    44   22   23 am   BACKBONE|DICT|INTERRES
    45   22   86 1    
    46   23   24 2    
    47   23   25 1    
    48   25   26 1    
    49   25   27 1    
    50   25   87 1    
    51   26   88 1    
    52   26   89 1    
    53   26   90 1    
    54   27   28 am   BACKBONE|DICT|INTERRES
    55   27   91 1    
    56   28   29 2    
    57   28   30 1    
    58   30   31 1    
    59   30   32 1    
    60   30   92 1    
    61   31   93 1    
    62   31   94 1    
    63   31   95 1    
    64   32   33 am   BACKBONE|DICT|INTERRES
    65   32   96 1    
    66   33   34 2    
    67   33   35 1    
    68   35   36 1    
    69   35   37 1    
    70   35   97 1    
    71   36   98 1    
    72   36   99 1    
    73   36  100 1    
    74   37   38 am   BACKBONE|DICT|INTERRES
    75   37  101 1    
    76   38   39 2    
    77   38   40 1    
    78   40   41 1    
    79   40   42 1    
    80   40  102 1    
    81   41  103 1    
    82   41  104 1    
    83   41  105 1    
    84   42   43 am   BACKBONE|DICT|INTERRES
    85   42  106 1    
    86   43   44 2    
    87   43   45 1    
    88   45   46 1    
    89   45   49 1    
    90   45  107 1    
    91   46   47 1    
    92   46  108 1    
    93   46  109 1    
    94   47   48 1    
    95   48  110 1    
    96   48  111 1    
    97   49   50 am   BACKBONE|DICT|INTERRES
    98   49  112 1    
    99   50   51 2    
   100   50   52 1    
   101   52   53 1    
   102   52   54 1    
   103   52  113 1    
   104   53  114 1    
   105   53  115 1    
   106   53  116 1    
   107   54   55 am   BACKBONE|DICT|INTERRES
   108   54  117 1    
   109   55   56 2    
   110   55   57 1    
   111   57   58 1    
   112   57   59 1    
   113   57  118 1    
   114   58  119 1    
   115   58  120 1    
   116   58  121 1    
   117   59   60 am   BACKBONE|DICT|INTERRES
   118   59  122 1    
   119   60   61 2    
   120   60   62 1    
   121   62   63 1    
   122   62   64 1    
   123   62  123 1    
   124   63  124 1    
   125   63  125 1    
   126   63  126 1    
   127   64   65 am   BACKBONE|DICT|INTERRES
   128   64  127 1    
   129   65   66 2    
@<TRIPOS>SUBSTRUCTURE
     1 UNK         1 GROUP             0       ****    0 ROOT    
