@<TRIPOS>MOLECULE
3R135
127   129    1
SMALL
USER_CHARGES


@<TRIPOS>ATOM
      1 CA        -79.5781   28.5877  -70.5434 C.3       0 UNK        -0.1998 
      2 C         -80.6192   28.2876  -71.6109 C.2       0 UNK         0.4909 
      3 O         -81.7905   28.0877  -71.2886 O.2       0 UNK        -0.5240 
      4 N         -80.1984   28.2628  -72.8817 N.am      1 UNK        -0.4739 
      5 CA        -81.0533   28.0448  -74.0573 C.3       1 UNK         0.0864 
      6 C6        -80.3113   28.3644  -75.3795 C.3       11 UNK        -0.0881 
      7 S7        -79.6612   30.0685  -75.4500 S.3       11 UNK        -0.2682 
      8 C8        -77.8711   29.7814  -75.6154 C.3       11 UNK         0.0289 
      9 C9        -77.1977   29.5666  -74.2683 C.ar      11 UNK        -0.0687 
     10 C10       -77.0919   28.2846  -73.7228 C.ar      11 UNK        -0.0823 
     11 C11       -76.4103   28.0743  -72.5202 C.ar      11 UNK        -0.0830 
     12 C12       -75.8369   29.1660  -71.8602 C.ar      11 UNK        -0.1021 
     13 C13       -75.9475   30.4566  -72.3869 C.ar      11 UNK        -0.0753 
     14 C14       -76.6379   30.6502  -73.5869 C.ar      11 UNK        -0.0933 
     15 C15       -75.3408   31.6408  -71.6466 C.3       11 UNK         0.0166 
     16 S16       -74.1232   32.5386  -72.6672 S.3       11 UNK        -0.2615 
     17 C17       -72.7527   32.8233  -71.4887 C.3       11 UNK        -0.0865 
     18 CA        -71.3954   32.2428  -71.9850 C.3       10 UNK         0.0862 
     19 C         -70.2216   32.5504  -71.0055 C.2       10 UNK         0.5551 
     20 N         -69.2316   31.6769  -70.8670 N.am      10 UNK        -0.7319 
     21 O         -70.1890   33.6099  -70.3837 O.2       10 UNK        -0.5018 
     22 N         -71.4853   30.8387  -72.4282 N.am      10 UNK        -0.4509 
     23 C         -71.8356   29.7862  -71.6781 C.2       10 UNK         0.4899 
     24 O         -72.0991   29.8455  -70.4765 O.2       10 UNK        -0.4839 
     25 CA        -71.9512   28.4567  -72.4339 C.3       9 UNK         0.0222 
     26 CB        -72.3816   27.2777  -71.5407 C.3       9 UNK        -0.1966 
     27 N         -72.9040   28.6308  -73.5287 N.am      9 UNK        -0.4218 
     28 C         -72.8016   28.0866  -74.7454 C.2       9 UNK         0.5020 
     29 O         -71.8893   27.3273  -75.0810 O.2       9 UNK        -0.5274 
     30 CA        -73.9233   28.4670  -75.7282 C.3       8 UNK         0.0270 
     31 CB        -73.8852   29.9622  -76.1099 C.3       8 UNK        -0.1976 
     32 N         -73.9904   27.5986  -76.9088 N.am      8 UNK        -0.4313 
     33 C         -73.1551   27.5228  -77.9571 C.2       8 UNK         0.5041 
     34 O         -72.2044   28.2847  -78.1424 O.2       8 UNK        -0.5577 
     35 CA        -73.4049   26.3988  -78.9868 C.3       7 UNK         0.0284 
     36 CB        -72.2543   25.3777  -78.9583 C.3       7 UNK        -0.1958 
     37 N         -74.6688   25.6833  -78.7870 N.am      7 UNK        -0.4454 
     38 C         -75.8758   26.1289  -79.1614 C.2       7 UNK         0.5089 
     39 O         -76.0536   27.1640  -79.8036 O.2       7 UNK        -0.5125 
     40 CA        -77.0955   25.2928  -78.7205 C.3       6 UNK         0.0408 
     41 CB        -77.5595   24.3750  -79.8621 C.3       6 UNK        -0.1791 
     42 N         -76.8853   24.4872  -77.5085 N.am      6 UNK        -0.4762 
     43 C         -76.5584   24.9760  -76.3008 C.2       6 UNK         0.5007 
     44 O         -76.3466   26.1720  -76.1105 O.2       6 UNK        -0.5032 
     45 CA        -76.4308   23.9762  -75.1303 C.3       5 UNK         0.0783 
     46 C46       -76.7848   24.5981  -73.7537 C.3       11 UNK        -0.0857 
     47 S47       -75.4041   25.5173  -72.9931 S.3       11 UNK        -0.2512 
     48 C48       -76.3070   26.6786  -71.9173 C.3       11 UNK         0.0225 
     49 N         -77.2639   22.8004  -75.3810 N.am      5 UNK        -0.4615 
     50 C         -76.8304   21.5469  -75.5611 C.2       4 UNK         0.5053 
     51 O         -75.6393   21.2376  -75.5840 O.2       4 UNK        -0.5105 
     52 CA        -77.8926   20.4411  -75.7314 C.3       4 UNK         0.0263 
     53 CB        -77.8713   19.4871  -74.5251 C.3       4 UNK        -0.1981 
     54 N         -79.2544   20.9577  -75.8965 N.am      4 UNK        -0.4224 
     55 C         -79.7366   21.5055  -77.0203 C.2       3 UNK         0.4895 
     56 O         -79.1058   21.5702  -78.0753 O.2       3 UNK        -0.5091 
     57 CA        -81.1427   22.1288  -76.9359 C.3       3 UNK         0.0250 
     58 CB        -82.2138   21.0926  -77.3125 C.3       3 UNK        -0.1996 
     59 N         -81.4638   22.7123  -75.6242 N.am      3 UNK        -0.4254 
     60 C         -80.7911   23.7245  -75.0584 C.2       2 UNK         0.5004 
     61 O         -79.7856   24.2353  -75.5558 O.2       2 UNK        -0.5226 
     62 CA        -81.2788   24.2127  -73.6842 C.3       2 UNK         0.0269 
     63 CB        -80.5867   23.4233  -72.5610 C.3       2 UNK        -0.1926 
     64 N         -80.9862   25.6376  -73.5138 N.am      2 UNK        -0.4687 
     65 C         -81.6463   26.6212  -74.1414 C.2       1 UNK         0.5165 
     66 O         -82.6740   26.4362  -74.7962 O.2       1 UNK        -0.5079 
     67 H67       -79.2682   27.6675  -70.0490 H         1 UNK         0.0900 
     68 H68       -79.9920   29.2576  -69.7902 H         1 UNK         0.0900 
     69 H69       -78.6953   29.0673  -70.9652 H         1 UNK         0.0900 
     70 H70       -79.2341   28.4883  -73.0859 H         1 UNK         0.2959 
     71 H71       -81.9006   28.7289  -73.9713 H         1 UNK         0.1079 
     72 H72       -80.9887   28.2486  -76.2282 H         1 UNK         0.0837 
     73 H73       -79.5049   27.6483  -75.5497 H         1 UNK         0.0837 
     74 H74       -77.6803   28.9340  -76.2766 H         1 UNK         0.0685 
     75 H75       -77.4280   30.6468  -76.1105 H         1 UNK         0.0685 
     76 H76       -77.5180   27.4457  -74.2518 H         1 UNK         0.1434 
     77 H77       -75.3111   29.0138  -70.9271 H         1 UNK         0.1329 
     78 H78       -76.7214   31.6461  -74.0004 H         1 UNK         0.1335 
     79 H79       -76.1363   32.3294  -71.3591 H         1 UNK         0.0680 
     80 H80       -74.8827   31.3001  -70.7176 H         1 UNK         0.0680 
     81 H81       -72.9964   32.4192  -70.5058 H         1 UNK         0.1032 
     82 H82       -72.6679   33.9022  -71.3464 H         1 UNK         0.1032 
     83 H83       -71.1360   32.7957  -72.8885 H         1 UNK         0.0461 
     84 H84       -69.2425   30.8097  -71.3790 H         1 UNK         0.3453 
     85 H85       -68.4704   31.8862  -70.2404 H         1 UNK         0.3453 
     86 H86       -71.2836   30.6819  -73.4051 H         1 UNK         0.2984 
     87 H87       -70.9599   28.2377  -72.8364 H         1 UNK         0.0554 
     88 H88       -73.3623   27.4450  -71.0962 H         1 UNK         0.0847 
     89 H89       -71.6737   27.1258  -70.7251 H         1 UNK         0.0847 
     90 H90       -72.4272   26.3480  -72.1081 H         1 UNK         0.0847 
     91 H91       -73.6851   29.2448  -73.3336 H         1 UNK         0.3141 
     92 H92       -74.8580   28.2837  -75.2031 H         1 UNK         0.0743 
     93 H93       -74.6794   30.2099  -76.8141 H         1 UNK         0.0784 
     94 H94       -74.0262   30.5963  -75.2341 H         1 UNK         0.0784 
     95 H95       -72.9340   30.2446  -76.5612 H         1 UNK         0.0784 
     96 H96       -74.7512   26.9263  -76.8625 H         1 UNK         0.3213 
     97 H97       -73.4214   26.8649  -79.9745 H         1 UNK         0.0855 
     98 H98       -72.1758   24.8857  -77.9880 H         1 UNK         0.0814 
     99 H99       -71.2970   25.8628  -79.1540 H         1 UNK         0.0814 
    100 H100      -72.3855   24.6077  -79.7189 H         1 UNK         0.0814 
    101 H101      -74.6260   24.8157  -78.2724 H         1 UNK         0.3105 
    102 H102      -77.9023   25.9956  -78.5023 H         1 UNK         0.0547 
    103 H103      -76.8134   23.6157  -80.0990 H         1 UNK         0.0837 
    104 H104      -78.4889   23.8650  -79.6081 H         1 UNK         0.0837 
    105 H105      -77.7449   24.9460  -80.7730 H         1 UNK         0.0837 
    106 H106      -77.0656   23.4958  -77.5868 H         1 UNK         0.3020 
    107 H107      -75.3807   23.6765  -75.1084 H         1 UNK         0.1245 
    108 H108      -77.0377   23.8070  -73.0459 H         1 UNK         0.0781 
    109 H109      -77.6783   25.2198  -73.8248 H         1 UNK         0.0781 
    110 H110      -77.3062   26.2995  -71.6993 H         1 UNK         0.0836 
    111 H111      -75.7901   26.7172  -70.9574 H         1 UNK         0.0836 
    112 H112      -78.2579   23.0001  -75.4413 H         1 UNK         0.3022 
    113 H113      -77.6265   19.8705  -76.6238 H         1 UNK         0.0747 
    114 H114      -78.5752   18.6649  -74.6564 H         1 UNK         0.0793 
    115 H115      -76.8828   19.0448  -74.3927 H         1 UNK         0.0793 
    116 H116      -78.1240   20.0025  -73.5976 H         1 UNK         0.0793 
    117 H117      -79.8473   20.9452  -75.0794 H         1 UNK         0.3047 
    118 H118      -81.1784   22.9374  -77.6694 H         1 UNK         0.0822 
    119 H119      -83.2047   21.5446  -77.3602 H         1 UNK         0.0807 
    120 H120      -82.2525   20.2709  -76.5962 H         1 UNK         0.0807 
    121 H121      -82.0106   20.6603  -78.2934 H         1 UNK         0.0807 
    122 H122      -82.2705   22.3338  -75.1478 H         1 UNK         0.2946 
    123 H123      -82.3589   24.0636  -73.6145 H         1 UNK         0.1144 
    124 H124      -80.9220   23.7568  -71.5786 H         1 UNK         0.0793 
    125 H125      -79.5022   23.5299  -72.5983 H         1 UNK         0.0793 
    126 H126      -80.8121   22.3584  -72.6328 H         1 UNK         0.0793 
    127 H127      -80.1451   25.8770  -73.0117 H         1 UNK         0.2896 
@<TRIPOS>BOND
     1    1    2 1    
     2    1   67 1    
     3    1   68 1    
     4    1   69 1    
     5    2    3 2    
     6    2    4 am   BACKBONE|DICT|INTERRES
     7    4    5 1    
     8    4   70 1    
     9    5    6 1    
    10    5   65 1    
    11    5   71 1    
    12    6    7 1    
    13    6   72 1    
    14    6   73 1    
    15    7    8 1    
    16    8    9 1    
    17    8   74 1    
    18    8   75 1    
    19    9   10 ar   
    20    9   14 ar   
    21   10   11 ar   
    22   10   76 1    
    23   11   12 ar   
    24   11   48 1    
    25   12   13 ar   
    26   12   77 1    
    27   13   14 ar   
    28   13   15 1    
    29   14   78 1    
    30   15   16 1    
    31   15   79 1    
    32   15   80 1    
    33   16   17 1    
    34   17   18 1    
    35   17   81 1    
    36   17   82 1    
    37   18   19 1    
    38   18   22 1    
    39   18   83 1    
    40   19   20 am   BACKBONE|DICT|INTERRES
    41   19   21 2    
    42   20   84 1    
    43   20   85 1    
    44   22   23 am   BACKBONE|DICT|INTERRES
    45   22   86 1    
    46   23   24 2    
    47   23   25 1    
    48   25   26 1    
    49   25   27 1    
    50   25   87 1    
    51   26   88 1    
    52   26   89 1    
    53   26   90 1    
    54   27   28 am   BACKBONE|DICT|INTERRES
    55   27   91 1    
    56   28   29 2    
    57   28   30 1    
    58   30   31 1    
    59   30   32 1    
    60   30   92 1    
    61   31   93 1    
    62   31   94 1    
    63   31   95 1    
    64   32   33 am   BACKBONE|DICT|INTERRES
    65   32   96 1    
    66   33   34 2    
    67   33   35 1    
    68   35   36 1    
    69   35   37 1    
    70   35   97 1    
    71   36   98 1    
    72   36   99 1    
    73   36  100 1    
    74   37   38 am   BACKBONE|DICT|INTERRES
    75   37  101 1    
    76   38   39 2    
    77   38   40 1    
    78   40   41 1    
    79   40   42 1    
    80   40  102 1    
    81   41  103 1    
    82   41  104 1    
    83   41  105 1    
    84   42   43 am   BACKBONE|DICT|INTERRES
    85   42  106 1    
    86   43   44 2    
    87   43   45 1    
    88   45   46 1    
    89   45   49 1    
    90   45  107 1    
    91   46   47 1    
    92   46  108 1    
    93   46  109 1    
    94   47   48 1    
    95   48  110 1    
    96   48  111 1    
    97   49   50 am   BACKBONE|DICT|INTERRES
    98   49  112 1    
    99   50   51 2    
   100   50   52 1    
   101   52   53 1    
   102   52   54 1    
   103   52  113 1    
   104   53  114 1    
   105   53  115 1    
   106   53  116 1    
   107   54   55 am   BACKBONE|DICT|INTERRES
   108   54  117 1    
   109   55   56 2    
   110   55   57 1    
   111   57   58 1    
   112   57   59 1    
   113   57  118 1    
   114   58  119 1    
   115   58  120 1    
   116   58  121 1    
   117   59   60 am   BACKBONE|DICT|INTERRES
   118   59  122 1    
   119   60   61 2    
   120   60   62 1    
   121   62   63 1    
   122   62   64 1    
   123   62  123 1    
   124   63  124 1    
   125   63  125 1    
   126   63  126 1    
   127   64   65 am   BACKBONE|DICT|INTERRES
   128   64  127 1    
   129   65   66 2    
@<TRIPOS>SUBSTRUCTURE
     1 UNK         1 GROUP             0       ****    0 ROOT    
