@<TRIPOS>MOLECULE
3R135
127   129    1
SMALL
USER_CHARGES


@<TRIPOS>ATOM
      1 CA        -79.9509   26.8404  -69.3355 C.3       0 UNK        -0.1998 
      2 C         -81.1467   26.7278  -70.2686 C.2       0 UNK         0.4909 
      3 O         -82.0991   26.0097  -69.9637 O.2       0 UNK        -0.5240 
      4 N         -81.1034   27.4394  -71.4019 N.am      1 UNK        -0.4739 
      5 CA        -82.1632   27.4871  -72.4202 C.3       1 UNK         0.0864 
      6 C6        -81.9729   28.6602  -73.4181 C.3       11 UNK        -0.0881 
      7 S7        -81.7564   30.2867  -72.6065 S.3       11 UNK        -0.2682 
      8 C8        -80.1715   30.8723  -73.2976 C.3       11 UNK         0.0289 
      9 C9        -78.9670   30.4014  -72.4905 C.ar      11 UNK        -0.0687 
     10 C10       -78.5790   29.0602  -72.5221 C.ar      11 UNK        -0.0823 
     11 C11       -77.4693   28.6082  -71.7953 C.ar      11 UNK        -0.0830 
     12 C12       -76.7341   29.5322  -71.0507 C.ar      11 UNK        -0.1021 
     13 C13       -77.0781   30.8866  -71.0461 C.ar      11 UNK        -0.0753 
     14 C14       -78.2090   31.3131  -71.7489 C.ar      11 UNK        -0.0933 
     15 C15       -76.1987   31.8900  -70.3138 C.3       11 UNK         0.0166 
     16 S16       -75.0302   32.7113  -71.4490 S.3       11 UNK        -0.2615 
     17 C17       -74.1213   31.2829  -72.1373 C.3       11 UNK        -0.0865 
     18 CA        -72.7466   31.6606  -72.7658 C.3       10 UNK         0.0862 
     19 C         -71.5755   31.6743  -71.7335 C.2       10 UNK         0.5551 
     20 N         -70.3590   31.3034  -72.1149 N.am      10 UNK        -0.7319 
     21 O         -71.7584   32.0507  -70.5785 O.2       10 UNK        -0.5018 
     22 N         -72.4698   30.9069  -74.0044 N.am      10 UNK        -0.4509 
     23 C         -72.3748   29.5741  -74.1144 C.2       10 UNK         0.4899 
     24 O         -72.5486   28.7977  -73.1725 O.2       10 UNK        -0.4839 
     25 CA        -72.0644   29.0444  -75.5300 C.3       9 UNK         0.0222 
     26 CB        -70.7360   29.6024  -76.0879 C.3       9 UNK        -0.1966 
     27 N         -72.1122   27.5789  -75.6270 N.am      9 UNK        -0.4218 
     28 C         -71.2640   26.6822  -75.0979 C.2       9 UNK         0.5020 
     29 O         -70.2353   26.9739  -74.4852 O.2       9 UNK        -0.5274 
     30 CA        -71.6133   25.1925  -75.2780 C.3       8 UNK         0.0270 
     31 CB        -72.4256   24.6809  -74.0773 C.3       8 UNK        -0.1976 
     32 N         -72.3272   24.8828  -76.5218 N.am      8 UNK        -0.4313 
     33 C         -71.7730   24.9315  -77.7429 C.2       8 UNK         0.5041 
     34 O         -70.6152   25.2930  -77.9568 O.2       8 UNK        -0.5577 
     35 CA        -72.6490   24.4912  -78.9254 C.3       7 UNK         0.0284 
     36 CB        -72.7330   22.9572  -79.0015 C.3       7 UNK        -0.1958 
     37 N         -73.9951   25.0525  -78.8250 N.am      7 UNK        -0.4454 
     38 C         -74.3698   26.2238  -79.3587 C.2       7 UNK         0.5089 
     39 O         -73.6426   26.9196  -80.0681 O.2       7 UNK        -0.5125 
     40 CA        -75.7956   26.7144  -79.0400 C.3       6 UNK         0.0408 
     41 CB        -76.7715   26.2851  -80.1463 C.3       6 UNK        -0.1791 
     42 N         -76.2929   26.2429  -77.7447 N.am      6 UNK        -0.4762 
     43 C         -75.7670   26.5892  -76.5593 C.2       6 UNK         0.5007 
     44 O         -74.8486   27.3976  -76.4350 O.2       6 UNK        -0.5032 
     45 CA        -76.3043   25.8748  -75.3044 C.3       5 UNK         0.0783 
     46 C46       -77.3199   26.7687  -74.5658 C.3       11 UNK        -0.0857 
     47 S47       -77.8493   26.0438  -72.9748 S.3       11 UNK        -0.2512 
     48 C48       -77.0061   27.1484  -71.7918 C.3       11 UNK         0.0225 
     49 N         -76.8386   24.5414  -75.5961 N.am      5 UNK        -0.4615 
     50 C         -76.1137   23.5166  -76.0659 C.2       4 UNK         0.5053 
     51 O         -74.9086   23.6002  -76.3095 O.2       4 UNK        -0.5105 
     52 CA        -76.8462   22.1921  -76.3432 C.3       4 UNK         0.0263 
     53 CB        -76.5925   21.1991  -75.1985 C.3       4 UNK        -0.1981 
     54 N         -78.2917   22.3422  -76.5395 N.am      4 UNK        -0.4224 
     55 C         -78.8718   22.9958  -77.5578 C.2       3 UNK         0.4895 
     56 O         -78.2455   23.5273  -78.4750 O.2       3 UNK        -0.5091 
     57 CA        -80.4078   23.1107  -77.5218 C.3       3 UNK         0.0250 
     58 CB        -81.0530   21.9419  -78.2834 C.3       3 UNK        -0.1996 
     59 N         -80.9563   23.1723  -76.1600 N.am      3 UNK        -0.4254 
     60 C         -80.7249   24.1752  -75.3012 C.2       2 UNK         0.5004 
     61 O         -80.0441   25.1630  -75.5825 O.2       2 UNK        -0.5226 
     62 CA        -81.2897   24.0088  -73.8821 C.3       2 UNK         0.0269 
     63 CB        -80.4203   23.0278  -73.0758 C.3       2 UNK        -0.1926 
     64 N         -81.3171   25.2901  -73.1749 N.am      2 UNK        -0.4687 
     65 C         -82.3402   26.1553  -73.1883 C.2       1 UNK         0.5165 
     66 O         -83.4017   25.9383  -73.7755 O.2       1 UNK        -0.5079 
     67 H67       -79.3091   27.6809  -69.5990 H         1 UNK         0.0900 
     68 H68       -79.3566   25.9281  -69.3761 H         1 UNK         0.0900 
     69 H69       -80.2862   26.9849  -68.3088 H         1 UNK         0.0900 
     70 H70       -80.3142   28.0474  -71.5689 H         1 UNK         0.2959 
     71 H71       -83.1026   27.6576  -71.8893 H         1 UNK         0.1079 
     72 H72       -81.1400   28.4629  -74.0939 H         1 UNK         0.0837 
     73 H73       -82.8508   28.7402  -74.0623 H         1 UNK         0.0837 
     74 H74       -80.0714   30.5536  -74.3361 H         1 UNK         0.0685 
     75 H75       -80.1988   31.9628  -73.3238 H         1 UNK         0.0685 
     76 H76       -79.1449   28.3756  -73.1320 H         1 UNK         0.1434 
     77 H77       -75.8654   29.1999  -70.4984 H         1 UNK         0.1329 
     78 H78       -78.4776   32.3607  -71.7420 H         1 UNK         0.1335 
     79 H79       -76.8215   32.6469  -69.8349 H         1 UNK         0.0680 
     80 H80       -75.6407   31.4011  -69.5136 H         1 UNK         0.0680 
     81 H81       -74.7731   30.8402  -72.8923 H         1 UNK         0.1032 
     82 H82       -73.9955   30.5143  -71.3729 H         1 UNK         0.1032 
     83 H83       -72.8151   32.6939  -73.1077 H         1 UNK         0.0461 
     84 H84       -69.6043   31.3229  -71.4473 H         1 UNK         0.3453 
     85 H85       -70.1924   30.9942  -73.0587 H         1 UNK         0.3453 
     86 H86       -72.3169   31.4726  -74.8270 H         1 UNK         0.2984 
     87 H87       -72.8691   29.3998  -76.1754 H         1 UNK         0.0554 
     88 H88       -70.5028   29.1680  -77.0602 H         1 UNK         0.0847 
     89 H89       -69.8960   29.3998  -75.4229 H         1 UNK         0.0847 
     90 H90       -70.7837   30.6826  -76.2263 H         1 UNK         0.0847 
     91 H91       -72.9653   27.2283  -76.0536 H         1 UNK         0.3141 
     92 H92       -70.6712   24.6402  -75.2993 H         1 UNK         0.0743 
     93 H93       -73.3543   25.2350  -73.9521 H         1 UNK         0.0784 
     94 H94       -72.6730   23.6241  -74.1810 H         1 UNK         0.0784 
     95 H95       -71.8585   24.7925  -73.1521 H         1 UNK         0.0784 
     96 H96       -73.2697   24.5100  -76.4309 H         1 UNK         0.3213 
     97 H97       -72.1731   24.8432  -79.8437 H         1 UNK         0.0855 
     98 H98       -73.1950   22.5262  -78.1127 H         1 UNK         0.0814 
     99 H99       -71.7388   22.5184  -79.0960 H         1 UNK         0.0814 
    100 H100      -73.3116   22.6359  -79.8677 H         1 UNK         0.0814 
    101 H101      -74.6468   24.5644  -78.2234 H         1 UNK         0.3105 
    102 H102      -75.7707   27.8058  -79.0114 H         1 UNK         0.0547 
    103 H103      -76.4472   26.6583  -81.1187 H         1 UNK         0.0837 
    104 H104      -76.8442   25.1994  -80.2219 H         1 UNK         0.0837 
    105 H105      -77.7731   26.6763  -79.9676 H         1 UNK         0.0837 
    106 H106      -77.0351   25.5546  -77.7635 H         1 UNK         0.3020 
    107 H107      -75.4499   25.7371  -74.6413 H         1 UNK         0.1245 
    108 H108      -78.2042   26.9405  -75.1811 H         1 UNK         0.0781 
    109 H109      -76.8866   27.7547  -74.3877 H         1 UNK         0.0781 
    110 H110      -75.9341   27.1107  -71.9932 H         1 UNK         0.0836 
    111 H111      -77.1441   26.7420  -70.7893 H         1 UNK         0.0836 
    112 H112      -77.8310   24.4218  -75.4402 H         1 UNK         0.3022 
    113 H113      -76.4248   21.7760  -77.2607 H         1 UNK         0.0747 
    114 H114      -77.0292   20.2237  -75.4139 H         1 UNK         0.0793 
    115 H115      -75.5232   21.0457  -75.0449 H         1 UNK         0.0793 
    116 H116      -77.0092   21.5547  -74.2550 H         1 UNK         0.0793 
    117 H117      -78.8891   21.9344  -75.8357 H         1 UNK         0.3047 
    118 H118      -80.6751   24.0392  -78.0312 H         1 UNK         0.0822 
    119 H119      -82.1355   22.0566  -78.3439 H         1 UNK         0.0807 
    120 H120      -80.8418   20.9824  -77.8095 H         1 UNK         0.0807 
    121 H121      -80.6778   21.8892  -79.3066 H         1 UNK         0.0807 
    122 H122      -81.5236   22.3908  -75.8628 H         1 UNK         0.2946 
    123 H123      -82.3038   23.6084  -73.9538 H         1 UNK         0.1144 
    124 H124      -80.4223   22.0342  -73.5253 H         1 UNK         0.0793 
    125 H125      -80.7913   22.9183  -72.0564 H         1 UNK         0.0793 
    126 H126      -79.3822   23.3580  -73.0183 H         1 UNK         0.0793 
    127 H127      -80.4579   25.5741  -72.7254 H         1 UNK         0.2896 
@<TRIPOS>BOND
     1    1    2 1    
     2    1   67 1    
     3    1   68 1    
     4    1   69 1    
     5    2    3 2    
     6    2    4 am   BACKBONE|DICT|INTERRES
     7    4    5 1    
     8    4   70 1    
     9    5    6 1    
    10    5   65 1    
    11    5   71 1    
    12    6    7 1    
    13    6   72 1    
    14    6   73 1    
    15    7    8 1    
    16    8    9 1    
    17    8   74 1    
    18    8   75 1    
    19    9   10 ar   
    20    9   14 ar   
    21   10   11 ar   
    22   10   76 1    
    23   11   12 ar   
    24   11   48 1    
    25   12   13 ar   
    26   12   77 1    
    27   13   14 ar   
    28   13   15 1    
    29   14   78 1    
    30   15   16 1    
    31   15   79 1    
    32   15   80 1    
    33   16   17 1    
    34   17   18 1    
    35   17   81 1    
    36   17   82 1    
    37   18   19 1    
    38   18   22 1    
    39   18   83 1    
    40   19   20 am   BACKBONE|DICT|INTERRES
    41   19   21 2    
    42   20   84 1    
    43   20   85 1    
    44   22   23 am   BACKBONE|DICT|INTERRES
    45   22   86 1    
    46   23   24 2    
    47   23   25 1    
    48   25   26 1    
    49   25   27 1    
    50   25   87 1    
    51   26   88 1    
    52   26   89 1    
    53   26   90 1    
    54   27   28 am   BACKBONE|DICT|INTERRES
    55   27   91 1    
    56   28   29 2    
    57   28   30 1    
    58   30   31 1    
    59   30   32 1    
    60   30   92 1    
    61   31   93 1    
    62   31   94 1    
    63   31   95 1    
    64   32   33 am   BACKBONE|DICT|INTERRES
    65   32   96 1    
    66   33   34 2    
    67   33   35 1    
    68   35   36 1    
    69   35   37 1    
    70   35   97 1    
    71   36   98 1    
    72   36   99 1    
    73   36  100 1    
    74   37   38 am   BACKBONE|DICT|INTERRES
    75   37  101 1    
    76   38   39 2    
    77   38   40 1    
    78   40   41 1    
    79   40   42 1    
    80   40  102 1    
    81   41  103 1    
    82   41  104 1    
    83   41  105 1    
    84   42   43 am   BACKBONE|DICT|INTERRES
    85   42  106 1    
    86   43   44 2    
    87   43   45 1    
    88   45   46 1    
    89   45   49 1    
    90   45  107 1    
    91   46   47 1    
    92   46  108 1    
    93   46  109 1    
    94   47   48 1    
    95   48  110 1    
    96   48  111 1    
    97   49   50 am   BACKBONE|DICT|INTERRES
    98   49  112 1    
    99   50   51 2    
   100   50   52 1    
   101   52   53 1    
   102   52   54 1    
   103   52  113 1    
   104   53  114 1    
   105   53  115 1    
   106   53  116 1    
   107   54   55 am   BACKBONE|DICT|INTERRES
   108   54  117 1    
   109   55   56 2    
   110   55   57 1    
   111   57   58 1    
   112   57   59 1    
   113   57  118 1    
   114   58  119 1    
   115   58  120 1    
   116   58  121 1    
   117   59   60 am   BACKBONE|DICT|INTERRES
   118   59  122 1    
   119   60   61 2    
   120   60   62 1    
   121   62   63 1    
   122   62   64 1    
   123   62  123 1    
   124   63  124 1    
   125   63  125 1    
   126   63  126 1    
   127   64   65 am   BACKBONE|DICT|INTERRES
   128   64  127 1    
   129   65   66 2    
@<TRIPOS>SUBSTRUCTURE
     1 UNK         1 GROUP             0       ****    0 ROOT    
