@<TRIPOS>MOLECULE
3R135
127   129    1
SMALL
USER_CHARGES


@<TRIPOS>ATOM
      1 CA        -85.4444   29.8319  -75.7554 C.3       0 UNK        -0.1998 
      2 C         -84.0754   29.1693  -75.7950 C.2       0 UNK         0.4909 
      3 O         -83.7196   28.5573  -76.8031 O.2       0 UNK        -0.5240 
      4 N         -83.3016   29.2949  -74.7102 N.am      1 UNK        -0.4739 
      5 CA        -81.9901   28.6624  -74.5364 C.3       1 UNK         0.0864 
      6 C6        -81.1408   29.3905  -73.4629 C.3       11 UNK        -0.0881 
      7 S7        -81.9519   29.5320  -71.8325 S.3       11 UNK        -0.2682 
      8 C8        -80.6897   30.4653  -70.8989 C.3       11 UNK         0.0289 
      9 C9        -79.3659   29.7285  -70.6870 C.ar      11 UNK        -0.0687 
     10 C10       -79.3044   28.3343  -70.5772 C.ar      11 UNK        -0.0823 
     11 C11       -78.0863   27.6875  -70.3586 C.ar      11 UNK        -0.0830 
     12 C12       -76.9251   28.4503  -70.2028 C.ar      11 UNK        -0.1021 
     13 C13       -76.9563   29.8443  -70.3368 C.ar      11 UNK        -0.0753 
     14 C14       -78.1851   30.4698  -70.5722 C.ar      11 UNK        -0.0933 
     15 C15       -75.7037   30.7200  -70.2299 C.3       11 UNK         0.0166 
     16 S16       -74.1041   29.8350  -70.1975 S.3       11 UNK        -0.2615 
     17 C17       -73.9797   29.1781  -71.9004 C.3       11 UNK        -0.0865 
     18 CA        -72.7165   29.6909  -72.6398 C.3       10 UNK         0.0862 
     19 C         -71.4113   29.0825  -72.0541 C.2       10 UNK         0.5551 
     20 N         -70.5783   29.8870  -71.4082 N.am      10 UNK        -0.7319 
     21 O         -71.1708   27.8816  -72.1559 O.2       10 UNK        -0.5018 
     22 N         -72.8101   29.4279  -74.0808 N.am      10 UNK        -0.4509 
     23 C         -72.0256   29.9907  -75.0093 C.2       10 UNK         0.4899 
     24 O         -71.2377   30.9099  -74.7790 O.2       10 UNK        -0.4839 
     25 CA        -72.1423   29.4031  -76.4279 C.3       9 UNK         0.0222 
     26 CB        -71.1645   30.0362  -77.4403 C.3       9 UNK        -0.1966 
     27 N         -72.0219   27.9416  -76.4124 N.am      9 UNK        -0.4218 
     28 C         -70.9733   27.2014  -76.0190 C.2       9 UNK         0.5020 
     29 O         -69.8773   27.6652  -75.7015 O.2       9 UNK        -0.5274 
     30 CA        -71.1810   25.6757  -75.9500 C.3       8 UNK         0.0270 
     31 CB        -71.4134   25.2405  -74.4941 C.3       8 UNK        -0.1976 
     32 N         -72.2930   25.1947  -76.7758 N.am      8 UNK        -0.4313 
     33 C         -72.2824   25.1512  -78.1154 C.2       8 UNK         0.5041 
     34 O         -71.3020   25.4398  -78.8029 O.2       8 UNK        -0.5577 
     35 CA        -73.5966   24.7501  -78.8070 C.3       7 UNK         0.0284 
     36 CB        -73.7550   23.2215  -78.8333 C.3       7 UNK        -0.1958 
     37 N         -74.7762   25.3655  -78.1893 N.am      7 UNK        -0.4454 
     38 C         -75.0241   26.6844  -78.1727 C.2       7 UNK         0.5089 
     39 O         -74.3053   27.5244  -78.7128 O.2       7 UNK        -0.5125 
     40 CA        -76.2569   27.1558  -77.3850 C.3       6 UNK         0.0408 
     41 CB        -77.5395   26.9660  -78.2094 C.3       6 UNK        -0.1791 
     42 N         -76.3895   26.4721  -76.0990 N.am      6 UNK        -0.4762 
     43 C         -75.5405   26.6001  -75.0698 C.2       6 UNK         0.5007 
     44 O         -74.5862   27.3778  -75.0627 O.2       6 UNK        -0.5032 
     45 CA        -75.7603   25.6762  -73.8589 C.3       5 UNK         0.0783 
     46 C46       -76.7410   26.2999  -72.8421 C.3       11 UNK        -0.0857 
     47 S47       -76.6655   25.4207  -71.2433 S.3       11 UNK        -0.2512 
     48 C48       -78.0419   26.1636  -70.2972 C.3       11 UNK         0.0225 
     49 N         -76.1709   24.3310  -74.2672 N.am      5 UNK        -0.4615 
     50 C         -75.3833   23.4611  -74.9105 C.2       4 UNK         0.5053 
     51 O         -74.2212   23.7002  -75.2364 O.2       4 UNK        -0.5105 
     52 CA        -76.0146   22.1107  -75.2829 C.3       4 UNK         0.0263 
     53 CB        -76.0095   21.1587  -74.0763 C.3       4 UNK        -0.1981 
     54 N         -77.3798   22.2513  -75.7966 N.am      4 UNK        -0.4224 
     55 C         -77.6878   22.8582  -76.9514 C.2       3 UNK         0.4895 
     56 O         -76.8551   23.3519  -77.7118 O.2       3 UNK        -0.5091 
     57 CA        -79.1821   22.9694  -77.2963 C.3       3 UNK         0.0250 
     58 CB        -79.7131   21.6374  -77.8505 C.3       3 UNK        -0.1996 
     59 N         -80.0288   23.4176  -76.1825 N.am      3 UNK        -0.4254 
     60 C         -79.8689   24.5738  -75.5248 C.2       2 UNK         0.5004 
     61 O         -78.9149   25.3361  -75.6946 O.2       2 UNK        -0.5226 
     62 CA        -80.9405   24.9592  -74.5024 C.3       2 UNK         0.0269 
     63 CB        -80.5718   24.4579  -73.0959 C.3       2 UNK        -0.1926 
     64 N         -81.0220   26.4169  -74.5149 N.am      2 UNK        -0.4687 
     65 C         -82.1150   27.1443  -74.2683 C.2       1 UNK         0.5165 
     66 O         -83.1748   26.6621  -73.8576 O.2       1 UNK        -0.5079 
     67 H67       -85.5331   30.5594  -76.5617 H         1 UNK         0.0900 
     68 H68       -85.6198   30.3484  -74.8118 H         1 UNK         0.0900 
     69 H69       -86.2265   29.0839  -75.8828 H         1 UNK         0.0900 
     70 H70       -83.6535   29.7759  -73.8942 H         1 UNK         0.2959 
     71 H71       -81.4583   28.7625  -75.4858 H         1 UNK         0.1079 
     72 H72       -80.1735   28.8997  -73.3408 H         1 UNK         0.0837 
     73 H73       -80.9130   30.3992  -73.8112 H         1 UNK         0.0837 
     74 H74       -81.1013   30.7163  -69.9207 H         1 UNK         0.0685 
     75 H75       -80.5155   31.4123  -71.4124 H         1 UNK         0.0685 
     76 H76       -80.2066   27.7453  -70.6658 H         1 UNK         0.1434 
     77 H77       -75.9948   27.9378  -70.0074 H         1 UNK         0.1329 
     78 H78       -78.2229   31.5474  -70.6591 H         1 UNK         0.1335 
     79 H79       -75.6868   31.4328  -71.0559 H         1 UNK         0.0680 
     80 H80       -75.7790   31.3104  -69.3158 H         1 UNK         0.0680 
     81 H81       -74.8740   29.4682  -72.4542 H         1 UNK         0.1032 
     82 H82       -73.9956   28.0870  -71.8635 H         1 UNK         0.1032 
     83 H83       -72.6829   30.7760  -72.5189 H         1 UNK         0.0461 
     84 H84       -69.7342   29.5046  -71.0121 H         1 UNK         0.3453 
     85 H85       -70.7766   30.8709  -71.3147 H         1 UNK         0.3453 
     86 H86       -73.4151   28.6615  -74.3661 H         1 UNK         0.2984 
     87 H87       -73.1556   29.6195  -76.7698 H         1 UNK         0.0554 
     88 H88       -71.3383   31.1092  -77.5293 H         1 UNK         0.0847 
     89 H89       -71.2895   29.6038  -78.4331 H         1 UNK         0.0847 
     90 H90       -70.1241   29.9008  -77.1436 H         1 UNK         0.0847 
     91 H91       -72.8813   27.4453  -76.6105 H         1 UNK         0.3141 
     92 H92       -70.2636   25.2026  -76.3064 H         1 UNK         0.0743 
     93 H93       -70.5825   25.5471  -73.8570 H         1 UNK         0.0784 
     94 H94       -72.3187   25.6872  -74.0813 H         1 UNK         0.0784 
     95 H95       -71.5044   24.1573  -74.4109 H         1 UNK         0.0784 
     96 H96       -73.1124   24.8466  -76.2816 H         1 UNK         0.3213 
     97 H97       -73.5445   25.1018  -79.8397 H         1 UNK         0.0855 
     98 H98       -73.8497   22.8064  -77.8296 H         1 UNK         0.0814 
     99 H99       -72.8923   22.7473  -79.3032 H         1 UNK         0.0814 
    100 H100      -74.6368   22.9248  -79.4013 H         1 UNK         0.0814 
    101 H101      -75.4558   24.7346  -77.7722 H         1 UNK         0.3105 
    102 H102      -76.1381   28.2229  -77.1850 H         1 UNK         0.0547 
    103 H103      -77.4685   27.4820  -79.1677 H         1 UNK         0.0837 
    104 H104      -77.7348   25.9136  -78.4177 H         1 UNK         0.0837 
    105 H105      -78.4080   27.3678  -77.6876 H         1 UNK         0.0837 
    106 H106      -77.1972   25.8598  -75.9914 H         1 UNK         0.3020 
    107 H107      -74.7863   25.5848  -73.3719 H         1 UNK         0.1245 
    108 H108      -77.7634   26.2922  -73.2232 H         1 UNK         0.0781 
    109 H109      -76.4867   27.3463  -72.6673 H         1 UNK         0.0781 
    110 H110      -78.9773   25.7392  -70.6634 H         1 UNK         0.0836 
    111 H111      -77.9556   25.8567  -69.2542 H         1 UNK         0.0836 
    112 H112      -77.1239   24.0709  -74.0649 H         1 UNK         0.3022 
    113 H113      -75.4028   21.6656  -76.0705 H         1 UNK         0.0747 
    114 H114      -74.9981   21.0279  -73.6888 H         1 UNK         0.0793 
    115 H115      -76.3800   20.1704  -74.3493 H         1 UNK         0.0793 
    116 H116      -76.6253   21.5348  -73.2582 H         1 UNK         0.0793 
    117 H117      -78.1291   21.8793  -75.2314 H         1 UNK         0.3047 
    118 H118      -79.2703   23.7191  -78.0858 H         1 UNK         0.0822 
    119 H119      -80.7339   21.7397  -78.2193 H         1 UNK         0.0807 
    120 H120      -79.7062   20.8506  -77.0952 H         1 UNK         0.0807 
    121 H121      -79.1033   21.2918  -78.6867 H         1 UNK         0.0807 
    122 H122      -80.8305   22.8418  -75.9676 H         1 UNK         0.2946 
    123 H123      -81.8993   24.5353  -74.8107 H         1 UNK         0.1144 
    124 H124      -80.5466   23.3681  -73.0636 H         1 UNK         0.0793 
    125 H125      -81.2987   24.7875  -72.3532 H         1 UNK         0.0793 
    126 H126      -79.5908   24.8157  -72.7856 H         1 UNK         0.0793 
    127 H127      -80.1886   26.8594  -74.8839 H         1 UNK         0.2896 
@<TRIPOS>BOND
     1    1    2 1    
     2    1   67 1    
     3    1   68 1    
     4    1   69 1    
     5    2    3 2    
     6    2    4 am   BACKBONE|DICT|INTERRES
     7    4    5 1    
     8    4   70 1    
     9    5    6 1    
    10    5   65 1    
    11    5   71 1    
    12    6    7 1    
    13    6   72 1    
    14    6   73 1    
    15    7    8 1    
    16    8    9 1    
    17    8   74 1    
    18    8   75 1    
    19    9   10 ar   
    20    9   14 ar   
    21   10   11 ar   
    22   10   76 1    
    23   11   12 ar   
    24   11   48 1    
    25   12   13 ar   
    26   12   77 1    
    27   13   14 ar   
    28   13   15 1    
    29   14   78 1    
    30   15   16 1    
    31   15   79 1    
    32   15   80 1    
    33   16   17 1    
    34   17   18 1    
    35   17   81 1    
    36   17   82 1    
    37   18   19 1    
    38   18   22 1    
    39   18   83 1    
    40   19   20 am   BACKBONE|DICT|INTERRES
    41   19   21 2    
    42   20   84 1    
    43   20   85 1    
    44   22   23 am   BACKBONE|DICT|INTERRES
    45   22   86 1    
    46   23   24 2    
    47   23   25 1    
    48   25   26 1    
    49   25   27 1    
    50   25   87 1    
    51   26   88 1    
    52   26   89 1    
    53   26   90 1    
    54   27   28 am   BACKBONE|DICT|INTERRES
    55   27   91 1    
    56   28   29 2    
    57   28   30 1    
    58   30   31 1    
    59   30   32 1    
    60   30   92 1    
    61   31   93 1    
    62   31   94 1    
    63   31   95 1    
    64   32   33 am   BACKBONE|DICT|INTERRES
    65   32   96 1    
    66   33   34 2    
    67   33   35 1    
    68   35   36 1    
    69   35   37 1    
    70   35   97 1    
    71   36   98 1    
    72   36   99 1    
    73   36  100 1    
    74   37   38 am   BACKBONE|DICT|INTERRES
    75   37  101 1    
    76   38   39 2    
    77   38   40 1    
    78   40   41 1    
    79   40   42 1    
    80   40  102 1    
    81   41  103 1    
    82   41  104 1    
    83   41  105 1    
    84   42   43 am   BACKBONE|DICT|INTERRES
    85   42  106 1    
    86   43   44 2    
    87   43   45 1    
    88   45   46 1    
    89   45   49 1    
    90   45  107 1    
    91   46   47 1    
    92   46  108 1    
    93   46  109 1    
    94   47   48 1    
    95   48  110 1    
    96   48  111 1    
    97   49   50 am   BACKBONE|DICT|INTERRES
    98   49  112 1    
    99   50   51 2    
   100   50   52 1    
   101   52   53 1    
   102   52   54 1    
   103   52  113 1    
   104   53  114 1    
   105   53  115 1    
   106   53  116 1    
   107   54   55 am   BACKBONE|DICT|INTERRES
   108   54  117 1    
   109   55   56 2    
   110   55   57 1    
   111   57   58 1    
   112   57   59 1    
   113   57  118 1    
   114   58  119 1    
   115   58  120 1    
   116   58  121 1    
   117   59   60 am   BACKBONE|DICT|INTERRES
   118   59  122 1    
   119   60   61 2    
   120   60   62 1    
   121   62   63 1    
   122   62   64 1    
   123   62  123 1    
   124   63  124 1    
   125   63  125 1    
   126   63  126 1    
   127   64   65 am   BACKBONE|DICT|INTERRES
   128   64  127 1    
   129   65   66 2    
@<TRIPOS>SUBSTRUCTURE
     1 UNK         1 GROUP             0       ****    0 ROOT    
