@<TRIPOS>MOLECULE
3R135
127   129    1
SMALL
USER_CHARGES


@<TRIPOS>ATOM
      1 CA        -83.4334   24.1029  -72.1997 C.3       0 UNK        -0.1998 
      2 C         -83.1986   25.5705  -72.5242 C.2       0 UNK         0.4909 
      3 O         -83.2174   26.4087  -71.6225 O.2       0 UNK        -0.5240 
      4 N         -82.9755   25.8829  -73.8039 N.am      1 UNK        -0.4739 
      5 CA        -82.7263   27.2251  -74.3207 C.3       1 UNK         0.0864 
      6 C6        -81.2465   27.6596  -74.1655 C.3       11 UNK        -0.0881 
      7 S7        -80.9227   29.4034  -74.5946 S.3       11 UNK        -0.2682 
      8 C8        -80.4043   30.1049  -72.9912 C.3       11 UNK         0.0289 
      9 C9        -79.0233   29.6212  -72.5613 C.ar      11 UNK        -0.0687 
     10 C10       -78.8970   28.5307  -71.6943 C.ar      11 UNK        -0.0823 
     11 C11       -77.6359   28.0731  -71.3071 C.ar      11 UNK        -0.0830 
     12 C12       -76.4979   28.7363  -71.7648 C.ar      11 UNK        -0.1021 
     13 C13       -76.5994   29.8321  -72.6253 C.ar      11 UNK        -0.0753 
     14 C14       -77.8700   30.2685  -73.0214 C.ar      11 UNK        -0.0933 
     15 C15       -75.3449   30.5040  -73.1784 C.3       11 UNK         0.0166 
     16 S16       -74.2324   31.1649  -71.8940 S.3       11 UNK        -0.2615 
     17 C17       -73.0418   29.7982  -71.6243 C.3       11 UNK        -0.0865 
     18 CA        -71.7790   29.9086  -72.5195 C.3       10 UNK         0.0862 
     19 C         -70.6068   29.0239  -71.9961 C.2       10 UNK         0.5551 
     20 N         -69.9172   28.2520  -72.8289 N.am      10 UNK        -0.7319 
     21 O         -70.3018   29.0491  -70.8063 O.2       10 UNK        -0.5018 
     22 N         -72.1121   29.6485  -73.9282 N.am      10 UNK        -0.4509 
     23 C         -71.5921   30.3034  -74.9718 C.2       10 UNK         0.4899 
     24 O         -70.8169   31.2557  -74.8682 O.2       10 UNK        -0.4839 
     25 CA        -72.0050   29.7919  -76.3659 C.3       9 UNK         0.0222 
     26 CB        -71.1391   30.3766  -77.5017 C.3       9 UNK        -0.1966 
     27 N         -72.0517   28.3264  -76.4598 N.am      9 UNK        -0.4218 
     28 C         -71.0506   27.4624  -76.2213 C.2       9 UNK         0.5020 
     29 O         -69.9349   27.8119  -75.8331 O.2       9 UNK        -0.5274 
     30 CA        -71.3192   25.9541  -76.4087 C.3       8 UNK         0.0270 
     31 CB        -71.1038   25.2032  -75.0831 C.3       8 UNK        -0.1976 
     32 N         -72.6558   25.6390  -76.9189 N.am      8 UNK        -0.4313 
     33 C         -73.0729   25.8193  -78.1795 C.2       8 UNK         0.5041 
     34 O         -72.3410   26.1899  -79.0975 O.2       8 UNK        -0.5577 
     35 CA        -74.5762   25.6108  -78.4436 C.3       7 UNK         0.0284 
     36 CB        -74.8774   24.1398  -78.7696 C.3       7 UNK        -0.1958 
     37 N         -75.4162   26.0524  -77.3237 N.am      7 UNK        -0.4454 
     38 C         -75.4822   27.3136  -76.8714 C.2       7 UNK         0.5089 
     39 O         -74.8847   28.2569  -77.3875 O.2       7 UNK        -0.5125 
     40 CA        -76.2902   27.5538  -75.5901 C.3       6 UNK         0.0408 
     41 CB        -77.7871   27.7023  -75.8866 C.3       6 UNK        -0.1791 
     42 N         -76.0703   26.4932  -74.6064 N.am      6 UNK        -0.4762 
     43 C         -74.9635   26.3704  -73.8584 C.2       6 UNK         0.5007 
     44 O         -74.0310   27.1776  -73.8798 O.2       6 UNK        -0.5032 
     45 CA        -74.8551   25.1089  -72.9728 C.3       5 UNK         0.0783 
     46 C46       -75.3669   25.3395  -71.5273 C.3       11 UNK        -0.0857 
     47 S47       -77.1910   25.3401  -71.3533 S.3       11 UNK        -0.2512 
     48 C48       -77.5013   26.8609  -70.3988 C.3       11 UNK         0.0225 
     49 N         -75.4744   23.9295  -73.5859 N.am      5 UNK        -0.4615 
     50 C         -75.0316   23.3181  -74.6908 C.2       4 UNK         0.5053 
     51 O         -74.0203   23.6625  -75.2994 O.2       4 UNK        -0.5105 
     52 CA        -75.8897   22.1618  -75.2368 C.3       4 UNK         0.0263 
     53 CB        -75.5018   20.8388  -74.5583 C.3       4 UNK        -0.1981 
     54 N         -77.3363   22.3806  -75.1013 N.am      4 UNK        -0.4224 
     55 C         -77.9992   23.4185  -75.6288 C.2       3 UNK         0.4895 
     56 O         -77.4545   24.3130  -76.2836 O.2       3 UNK        -0.5091 
     57 CA        -79.5058   23.5004  -75.3476 C.3       3 UNK         0.0250 
     58 CB        -79.7732   23.7532  -73.8493 C.3       3 UNK        -0.1996 
     59 N         -80.0374   24.6018  -76.1429 N.am      3 UNK        -0.4254 
     60 C         -81.3186   24.9016  -76.3649 C.2       2 UNK         0.5004 
     61 O         -82.2718   24.2183  -75.9833 O.2       2 UNK        -0.5226 
     62 CA        -81.5619   26.2104  -77.1339 C.3       2 UNK         0.0269 
     63 CB        -81.4853   25.9401  -78.6458 C.3       2 UNK        -0.1926 
     64 N         -82.8481   26.8571  -76.8478 N.am      2 UNK        -0.4687 
     65 C         -83.3897   27.3434  -75.7145 C.2       1 UNK         0.5165 
     66 O         -84.4987   27.8749  -75.7608 O.2       1 UNK        -0.5079 
     67 H67       -83.4155   23.4811  -73.0950 H         1 UNK         0.0900 
     68 H68       -82.6626   23.7414  -71.5196 H         1 UNK         0.0900 
     69 H69       -84.4022   23.9750  -71.7175 H         1 UNK         0.0900 
     70 H70       -82.9677   25.1513  -74.5129 H         1 UNK         0.2959 
     71 H71       -83.2969   27.9149  -73.6935 H         1 UNK         0.1079 
     72 H72       -80.9697   27.5047  -73.1255 H         1 UNK         0.0837 
     73 H73       -80.5625   27.0200  -74.7131 H         1 UNK         0.0837 
     74 H74       -80.3980   31.1928  -73.0727 H         1 UNK         0.0685 
     75 H75       -81.1494   29.8640  -72.2311 H         1 UNK         0.0685 
     76 H76       -79.7799   28.0297  -71.3228 H         1 UNK         0.1434 
     77 H77       -75.5309   28.3808  -71.4576 H         1 UNK         0.1329 
     78 H78       -77.9656   31.1059  -73.6988 H         1 UNK         0.1335 
     79 H79       -74.7983   29.7973  -73.7986 H         1 UNK         0.0680 
     80 H80       -75.6207   31.3288  -73.8369 H         1 UNK         0.0680 
     81 H81       -72.7711   29.8350  -70.5674 H         1 UNK         0.1032 
     82 H82       -73.5086   28.8276  -71.7752 H         1 UNK         0.1032 
     83 H83       -71.4133   30.9328  -72.4271 H         1 UNK         0.0461 
     84 H84       -69.1595   27.6974  -72.4644 H         1 UNK         0.3453 
     85 H85       -70.1057   28.2498  -73.8242 H         1 UNK         0.3453 
     86 H86       -72.7139   28.8493  -74.0965 H         1 UNK         0.2984 
     87 H87       -73.0275   30.1384  -76.5212 H         1 UNK         0.0554 
     88 H88       -71.1958   31.4656  -77.5175 H         1 UNK         0.0847 
     89 H89       -71.4734   30.0222  -78.4768 H         1 UNK         0.0847 
     90 H90       -70.0885   30.1069  -77.3888 H         1 UNK         0.0847 
     91 H91       -72.9452   27.9525  -76.7605 H         1 UNK         0.3141 
     92 H92       -70.5863   25.5868  -77.1298 H         1 UNK         0.0743 
     93 H93       -71.7912   25.5477  -74.3103 H         1 UNK         0.0784 
     94 H94       -71.2468   24.1295  -75.2062 H         1 UNK         0.0784 
     95 H95       -70.0909   25.3512  -74.7062 H         1 UNK         0.0784 
     96 H96       -73.3064   25.2271  -76.2553 H         1 UNK         0.3213 
     97 H97       -74.8457   26.2150  -79.3126 H         1 UNK         0.0855 
     98 H98       -74.5919   23.4782  -77.9522 H         1 UNK         0.0814 
     99 H99       -74.3265   23.8182  -79.6543 H         1 UNK         0.0814 
    100 H100      -75.9375   23.9853  -78.9720 H         1 UNK         0.0814 
    101 H101      -75.9866   25.3461  -76.8642 H         1 UNK         0.3105 
    102 H102      -75.9535   28.4961  -75.1623 H         1 UNK         0.0547 
    103 H103      -77.9716   28.5641  -76.5291 H         1 UNK         0.0837 
    104 H104      -78.1952   26.8285  -76.3899 H         1 UNK         0.0837 
    105 H105      -78.3457   27.8613  -74.9654 H         1 UNK         0.0837 
    106 H106      -76.7643   25.7609  -74.5613 H         1 UNK         0.3020 
    107 H107      -73.7856   24.8981  -72.8994 H         1 UNK         0.1245 
    108 H108      -74.9369   26.2485  -71.1066 H         1 UNK         0.0781 
    109 H109      -74.9933   24.5352  -70.8918 H         1 UNK         0.0781 
    110 H110      -76.7081   27.0171  -69.6661 H         1 UNK         0.0836 
    111 H111      -78.4176   26.7257  -69.8221 H         1 UNK         0.0836 
    112 H112      -76.3185   23.5948  -73.1445 H         1 UNK         0.3022 
    113 H113      -75.6735   22.0713  -76.3029 H         1 UNK         0.0747 
    114 H114      -76.0260   19.9941  -75.0059 H         1 UNK         0.0793 
    115 H115      -74.4330   20.6457  -74.6633 H         1 UNK         0.0793 
    116 H116      -75.7279   20.8485  -73.4913 H         1 UNK         0.0793 
    117 H117      -77.8516   21.6888  -74.5757 H         1 UNK         0.3047 
    118 H118      -79.9735   22.5663  -75.6651 H         1 UNK         0.0822 
    119 H119      -79.3308   22.9778  -73.2233 H         1 UNK         0.0807 
    120 H120      -80.8402   23.7582  -73.6331 H         1 UNK         0.0807 
    121 H121      -79.3644   24.7106  -73.5231 H         1 UNK         0.0807 
    122 H122      -79.3032   25.1551  -76.5683 H         1 UNK         0.2946 
    123 H123      -80.7738   26.9251  -76.8935 H         1 UNK         0.1144 
    124 H124      -81.5866   26.8608  -79.2211 H         1 UNK         0.0793 
    125 H125      -82.2668   25.2525  -78.9725 H         1 UNK         0.0793 
    126 H126      -80.5270   25.4966  -78.9211 H         1 UNK         0.0793 
    127 H127      -83.4274   26.9600  -77.6674 H         1 UNK         0.2896 
@<TRIPOS>BOND
     1    1    2 1    
     2    1   67 1    
     3    1   68 1    
     4    1   69 1    
     5    2    3 2    
     6    2    4 am   BACKBONE|DICT|INTERRES
     7    4    5 1    
     8    4   70 1    
     9    5    6 1    
    10    5   65 1    
    11    5   71 1    
    12    6    7 1    
    13    6   72 1    
    14    6   73 1    
    15    7    8 1    
    16    8    9 1    
    17    8   74 1    
    18    8   75 1    
    19    9   10 ar   
    20    9   14 ar   
    21   10   11 ar   
    22   10   76 1    
    23   11   12 ar   
    24   11   48 1    
    25   12   13 ar   
    26   12   77 1    
    27   13   14 ar   
    28   13   15 1    
    29   14   78 1    
    30   15   16 1    
    31   15   79 1    
    32   15   80 1    
    33   16   17 1    
    34   17   18 1    
    35   17   81 1    
    36   17   82 1    
    37   18   19 1    
    38   18   22 1    
    39   18   83 1    
    40   19   20 am   BACKBONE|DICT|INTERRES
    41   19   21 2    
    42   20   84 1    
    43   20   85 1    
    44   22   23 am   BACKBONE|DICT|INTERRES
    45   22   86 1    
    46   23   24 2    
    47   23   25 1    
    48   25   26 1    
    49   25   27 1    
    50   25   87 1    
    51   26   88 1    
    52   26   89 1    
    53   26   90 1    
    54   27   28 am   BACKBONE|DICT|INTERRES
    55   27   91 1    
    56   28   29 2    
    57   28   30 1    
    58   30   31 1    
    59   30   32 1    
    60   30   92 1    
    61   31   93 1    
    62   31   94 1    
    63   31   95 1    
    64   32   33 am   BACKBONE|DICT|INTERRES
    65   32   96 1    
    66   33   34 2    
    67   33   35 1    
    68   35   36 1    
    69   35   37 1    
    70   35   97 1    
    71   36   98 1    
    72   36   99 1    
    73   36  100 1    
    74   37   38 am   BACKBONE|DICT|INTERRES
    75   37  101 1    
    76   38   39 2    
    77   38   40 1    
    78   40   41 1    
    79   40   42 1    
    80   40  102 1    
    81   41  103 1    
    82   41  104 1    
    83   41  105 1    
    84   42   43 am   BACKBONE|DICT|INTERRES
    85   42  106 1    
    86   43   44 2    
    87   43   45 1    
    88   45   46 1    
    89   45   49 1    
    90   45  107 1    
    91   46   47 1    
    92   46  108 1    
    93   46  109 1    
    94   47   48 1    
    95   48  110 1    
    96   48  111 1    
    97   49   50 am   BACKBONE|DICT|INTERRES
    98   49  112 1    
    99   50   51 2    
   100   50   52 1    
   101   52   53 1    
   102   52   54 1    
   103   52  113 1    
   104   53  114 1    
   105   53  115 1    
   106   53  116 1    
   107   54   55 am   BACKBONE|DICT|INTERRES
   108   54  117 1    
   109   55   56 2    
   110   55   57 1    
   111   57   58 1    
   112   57   59 1    
   113   57  118 1    
   114   58  119 1    
   115   58  120 1    
   116   58  121 1    
   117   59   60 am   BACKBONE|DICT|INTERRES
   118   59  122 1    
   119   60   61 2    
   120   60   62 1    
   121   62   63 1    
   122   62   64 1    
   123   62  123 1    
   124   63  124 1    
   125   63  125 1    
   126   63  126 1    
   127   64   65 am   BACKBONE|DICT|INTERRES
   128   64  127 1    
   129   65   66 2    
@<TRIPOS>SUBSTRUCTURE
     1 UNK         1 GROUP             0       ****    0 ROOT    
