@<TRIPOS>MOLECULE
3R135
127   129    1
SMALL
USER_CHARGES


@<TRIPOS>ATOM
      1 CA        -82.2712   29.8187  -76.0880 C.3       0 UNK        -0.1998 
      2 C         -81.0988   29.3653  -75.2311 C.2       0 UNK         0.4909 
      3 O         -79.9510   29.5344  -75.6426 O.2       0 UNK        -0.5240 
      4 N         -81.3946   28.7934  -74.0538 N.am      1 UNK        -0.4739 
      5 CA        -80.4736   28.2740  -73.0303 C.3       1 UNK         0.0864 
      6 C6        -81.2678   27.5218  -71.9234 C.3       11 UNK        -0.0881 
      7 S7        -81.7426   28.6466  -70.5673 S.3       11 UNK        -0.2682 
      8 C8        -80.5615   28.1734  -69.2558 C.3       11 UNK         0.0289 
      9 C9        -79.1232   28.1622  -69.7568 C.ar      11 UNK        -0.0687 
     10 C10       -78.4663   26.9483  -69.9835 C.ar      11 UNK        -0.0823 
     11 C11       -77.1812   26.9208  -70.5364 C.ar      11 UNK        -0.0830 
     12 C12       -76.5339   28.1318  -70.8069 C.ar      11 UNK        -0.1021 
     13 C13       -77.1724   29.3532  -70.5629 C.ar      11 UNK        -0.0753 
     14 C14       -78.4662   29.3625  -70.0370 C.ar      11 UNK        -0.0933 
     15 C15       -76.4700   30.6631  -70.8786 C.3       11 UNK         0.0166 
     16 S16       -76.7206   31.1346  -72.6184 S.3       11 UNK        -0.2615 
     17 C17       -75.6174   32.5861  -72.7656 C.3       11 UNK        -0.0865 
     18 CA        -74.1950   32.2628  -73.3040 C.3       10 UNK         0.0862 
     19 C         -73.2926   31.6299  -72.2019 C.2       10 UNK         0.5551 
     20 N         -72.8965   30.3670  -72.3108 N.am      10 UNK        -0.7319 
     21 O         -72.9483   32.3019  -71.2331 O.2       10 UNK        -0.5018 
     22 N         -74.2418   31.5331  -74.5841 N.am      10 UNK        -0.4509 
     23 C         -73.1964   31.3617  -75.4024 C.2       10 UNK         0.4899 
     24 O         -72.0832   31.8560  -75.2152 O.2       10 UNK        -0.4839 
     25 CA        -73.4048   30.4423  -76.6087 C.3       9 UNK         0.0222 
     26 CB        -73.0942   31.1549  -77.9372 C.3       9 UNK        -0.1966 
     27 N         -72.5167   29.3000  -76.4214 N.am      9 UNK        -0.4218 
     28 C         -72.7520   28.0529  -76.8387 C.2       9 UNK         0.5020 
     29 O         -73.7100   27.7241  -77.5438 O.2       9 UNK        -0.5274 
     30 CA        -71.7703   26.9854  -76.3425 C.3       8 UNK         0.0270 
     31 CB        -71.9955   26.6849  -74.8460 C.3       8 UNK        -0.1976 
     32 N         -71.9625   25.7684  -77.1243 N.am      8 UNK        -0.4313 
     33 C         -71.0784   24.7734  -77.2559 C.2       8 UNK         0.5041 
     34 O         -69.9596   24.7881  -76.7376 O.2       8 UNK        -0.5577 
     35 CA        -71.5092   23.5674  -78.1191 C.3       7 UNK         0.0284 
     36 CB        -70.6875   22.2951  -77.8173 C.3       7 UNK        -0.1958 
     37 N         -72.9500   23.2752  -78.0654 N.am      7 UNK        -0.4454 
     38 C         -73.6785   22.9554  -76.9844 C.2       7 UNK         0.5089 
     39 O         -73.2241   22.8786  -75.8410 O.2       7 UNK        -0.5125 
     40 CA        -75.1657   22.6757  -77.2645 C.3       6 UNK         0.0408 
     41 CB        -75.3789   21.2721  -77.8674 C.3       6 UNK        -0.1791 
     42 N         -76.0292   22.9099  -76.1030 N.am      6 UNK        -0.4762 
     43 C         -76.1896   22.1755  -74.9900 C.2       6 UNK         0.5007 
     44 O         -75.6291   21.1010  -74.7689 O.2       6 UNK        -0.5032 
     45 CA        -77.1874   22.7329  -73.9511 C.3       5 UNK         0.0783 
     46 C46       -76.4570   23.6709  -72.9538 C.3       11 UNK        -0.0857 
     47 S47       -77.5848   24.4237  -71.7325 S.3       11 UNK        -0.2512 
     48 C48       -76.4911   25.5933  -70.8496 C.3       11 UNK         0.0225 
     49 N         -78.3537   23.3605  -74.5942 N.am      5 UNK        -0.4615 
     50 C         -79.2756   22.6985  -75.3112 C.2       4 UNK         0.5053 
     51 O         -79.2718   21.4769  -75.4654 O.2       4 UNK        -0.5105 
     52 CA        -80.3873   23.5264  -75.9761 C.3       4 UNK         0.0263 
     53 CB        -81.5824   23.6939  -75.0231 C.3       4 UNK        -0.1981 
     54 N         -79.9020   24.8422  -76.3937 N.am      4 UNK        -0.4224 
     55 C         -79.3315   25.1001  -77.5804 C.2       3 UNK         0.4895 
     56 O         -79.2439   24.2753  -78.4905 O.2       3 UNK        -0.5091 
     57 CA        -78.7444   26.5103  -77.7954 C.3       3 UNK         0.0250 
     58 CB        -79.7855   27.4280  -78.4548 C.3       3 UNK        -0.1996 
     59 N         -78.2558   27.1369  -76.5639 N.am      3 UNK        -0.4254 
     60 C         -77.2568   26.6499  -75.8127 C.2       2 UNK         0.5004 
     61 O         -76.5787   25.6745  -76.1297 O.2       2 UNK        -0.5226 
     62 CA        -77.0075   27.3094  -74.4459 C.3       2 UNK         0.0269 
     63 CB        -75.8464   28.3054  -74.5443 C.3       2 UNK        -0.1926 
     64 N         -78.1780   27.9635  -73.8528 N.am      2 UNK        -0.4687 
     65 C         -79.3660   27.3816  -73.6254 C.2       1 UNK         0.5165 
     66 O         -79.6186   26.2102  -73.9129 O.2       1 UNK        -0.5079 
     67 H67       -82.2278   30.8970  -76.2386 H         1 UNK         0.0900 
     68 H68       -83.2306   29.5785  -75.6300 H         1 UNK         0.0900 
     69 H69       -82.2329   29.3380  -77.0648 H         1 UNK         0.0900 
     70 H70       -82.3702   28.7034  -73.8094 H         1 UNK         0.2959 
     71 H71       -79.9725   29.1364  -72.5857 H         1 UNK         0.1079 
     72 H72       -82.1690   27.0613  -72.3321 H         1 UNK         0.0837 
     73 H73       -80.7078   26.6860  -71.5016 H         1 UNK         0.0837 
     74 H74       -80.6528   28.8735  -68.4242 H         1 UNK         0.0685 
     75 H75       -80.8407   27.1940  -68.8640 H         1 UNK         0.0685 
     76 H76       -78.9741   26.0178  -69.7691 H         1 UNK         0.1434 
     77 H77       -75.5356   28.1285  -71.2221 H         1 UNK         0.1329 
     78 H78       -78.9733   30.3028  -69.8677 H         1 UNK         0.1335 
     79 H79       -76.8396   31.4598  -70.2311 H         1 UNK         0.0680 
     80 H80       -75.4065   30.5609  -70.6645 H         1 UNK         0.0680 
     81 H81       -75.5665   33.1110  -71.8094 H         1 UNK         0.1032 
     82 H82       -76.1000   33.2884  -73.4469 H         1 UNK         0.1032 
     83 H83       -73.7275   33.2242  -73.5261 H         1 UNK         0.0461 
     84 H84       -73.1824   29.8109  -73.0979 H         1 UNK         0.3453 
     85 H85       -72.3085   29.9715  -71.5947 H         1 UNK         0.3453 
     86 H86       -75.1221   31.0877  -74.7959 H         1 UNK         0.2984 
     87 H87       -74.4426   30.1040  -76.6275 H         1 UNK         0.0554 
     88 H88       -73.2636   30.4952  -78.7884 H         1 UNK         0.0847 
     89 H89       -72.0597   31.4978  -77.9812 H         1 UNK         0.0847 
     90 H90       -73.7347   32.0276  -78.0702 H         1 UNK         0.0847 
     91 H91       -71.7069   29.4846  -75.8426 H         1 UNK         0.3141 
     92 H92       -70.7545   27.3552  -76.4984 H         1 UNK         0.0743 
     93 H93       -72.9955   26.2886  -74.6635 H         1 UNK         0.0784 
     94 H94       -71.2782   25.9522  -74.4760 H         1 UNK         0.0784 
     95 H95       -71.8796   27.5809  -74.2353 H         1 UNK         0.0784 
     96 H96       -72.8491   25.7299  -77.6136 H         1 UNK         0.3213 
     97 H97       -71.2965   23.8540  -79.1503 H         1 UNK         0.0855 
     98 H98       -69.6242   22.4633  -77.9927 H         1 UNK         0.0814 
     99 H99       -70.9909   21.4651  -78.4553 H         1 UNK         0.0814 
    100 H100      -70.7991   21.9793  -76.7795 H         1 UNK         0.0814 
    101 H101      -73.4292   23.3224  -78.9547 H         1 UNK         0.3105 
    102 H102      -75.4960   23.4063  -78.0049 H         1 UNK         0.0547 
    103 H103      -74.8733   21.1786  -78.8291 H         1 UNK         0.0837 
    104 H104      -74.9844   20.4861  -77.2231 H         1 UNK         0.0837 
    105 H105      -76.4363   21.0691  -78.0374 H         1 UNK         0.0837 
    106 H106      -76.4740   23.8265  -76.1089 H         1 UNK         0.3020 
    107 H107      -77.5615   21.8770  -73.3843 H         1 UNK         0.1245 
    108 H108      -75.9274   24.4591  -73.4895 H         1 UNK         0.0781 
    109 H109      -75.6929   23.1143  -72.4076 H         1 UNK         0.0781 
    110 H110      -75.5933   25.7689  -71.4438 H         1 UNK         0.0836 
    111 H111      -76.1585   25.1344  -69.9178 H         1 UNK         0.0836 
    112 H112      -78.4708   24.3549  -74.4490 H         1 UNK         0.3022 
    113 H113      -80.7351   22.9757  -76.8529 H         1 UNK         0.0747 
    114 H114      -82.3813   24.2727  -75.4866 H         1 UNK         0.0793 
    115 H115      -82.0001   22.7234  -74.7518 H         1 UNK         0.0793 
    116 H116      -81.2998   24.1943  -74.0965 H         1 UNK         0.0793 
    117 H117      -79.8906   25.5583  -75.6721 H         1 UNK         0.3047 
    118 H118      -77.8937   26.4118  -78.4732 H         1 UNK         0.0822 
    119 H119      -79.3767   28.4198  -78.6493 H         1 UNK         0.0807 
    120 H120      -80.6698   27.5459  -77.8283 H         1 UNK         0.0807 
    121 H121      -80.1155   27.0193  -79.4109 H         1 UNK         0.0807 
    122 H122      -78.7638   27.9482  -76.2230 H         1 UNK         0.2946 
    123 H123      -76.7135   26.5195  -73.7580 H         1 UNK         0.1144 
    124 H124      -75.5306   28.6502  -73.5615 H         1 UNK         0.0793 
    125 H125      -76.1200   29.1728  -75.1443 H         1 UNK         0.0793 
    126 H126      -74.9784   27.8406  -75.0099 H         1 UNK         0.0793 
    127 H127      -78.0694   28.9410  -73.6191 H         1 UNK         0.2896 
@<TRIPOS>BOND
     1    1    2 1    
     2    1   67 1    
     3    1   68 1    
     4    1   69 1    
     5    2    3 2    
     6    2    4 am   BACKBONE|DICT|INTERRES
     7    4    5 1    
     8    4   70 1    
     9    5    6 1    
    10    5   65 1    
    11    5   71 1    
    12    6    7 1    
    13    6   72 1    
    14    6   73 1    
    15    7    8 1    
    16    8    9 1    
    17    8   74 1    
    18    8   75 1    
    19    9   10 ar   
    20    9   14 ar   
    21   10   11 ar   
    22   10   76 1    
    23   11   12 ar   
    24   11   48 1    
    25   12   13 ar   
    26   12   77 1    
    27   13   14 ar   
    28   13   15 1    
    29   14   78 1    
    30   15   16 1    
    31   15   79 1    
    32   15   80 1    
    33   16   17 1    
    34   17   18 1    
    35   17   81 1    
    36   17   82 1    
    37   18   19 1    
    38   18   22 1    
    39   18   83 1    
    40   19   20 am   BACKBONE|DICT|INTERRES
    41   19   21 2    
    42   20   84 1    
    43   20   85 1    
    44   22   23 am   BACKBONE|DICT|INTERRES
    45   22   86 1    
    46   23   24 2    
    47   23   25 1    
    48   25   26 1    
    49   25   27 1    
    50   25   87 1    
    51   26   88 1    
    52   26   89 1    
    53   26   90 1    
    54   27   28 am   BACKBONE|DICT|INTERRES
    55   27   91 1    
    56   28   29 2    
    57   28   30 1    
    58   30   31 1    
    59   30   32 1    
    60   30   92 1    
    61   31   93 1    
    62   31   94 1    
    63   31   95 1    
    64   32   33 am   BACKBONE|DICT|INTERRES
    65   32   96 1    
    66   33   34 2    
    67   33   35 1    
    68   35   36 1    
    69   35   37 1    
    70   35   97 1    
    71   36   98 1    
    72   36   99 1    
    73   36  100 1    
    74   37   38 am   BACKBONE|DICT|INTERRES
    75   37  101 1    
    76   38   39 2    
    77   38   40 1    
    78   40   41 1    
    79   40   42 1    
    80   40  102 1    
    81   41  103 1    
    82   41  104 1    
    83   41  105 1    
    84   42   43 am   BACKBONE|DICT|INTERRES
    85   42  106 1    
    86   43   44 2    
    87   43   45 1    
    88   45   46 1    
    89   45   49 1    
    90   45  107 1    
    91   46   47 1    
    92   46  108 1    
    93   46  109 1    
    94   47   48 1    
    95   48  110 1    
    96   48  111 1    
    97   49   50 am   BACKBONE|DICT|INTERRES
    98   49  112 1    
    99   50   51 2    
   100   50   52 1    
   101   52   53 1    
   102   52   54 1    
   103   52  113 1    
   104   53  114 1    
   105   53  115 1    
   106   53  116 1    
   107   54   55 am   BACKBONE|DICT|INTERRES
   108   54  117 1    
   109   55   56 2    
   110   55   57 1    
   111   57   58 1    
   112   57   59 1    
   113   57  118 1    
   114   58  119 1    
   115   58  120 1    
   116   58  121 1    
   117   59   60 am   BACKBONE|DICT|INTERRES
   118   59  122 1    
   119   60   61 2    
   120   60   62 1    
   121   62   63 1    
   122   62   64 1    
   123   62  123 1    
   124   63  124 1    
   125   63  125 1    
   126   63  126 1    
   127   64   65 am   BACKBONE|DICT|INTERRES
   128   64  127 1    
   129   65   66 2    
@<TRIPOS>SUBSTRUCTURE
     1 UNK         1 GROUP             0       ****    0 ROOT    
