@<TRIPOS>MOLECULE
3R135
127   129    1
SMALL
USER_CHARGES


@<TRIPOS>ATOM
      1 CA        -84.3056   30.0328  -72.0036 C.3       0 UNK        -0.1998 
      2 C         -83.3219   29.1085  -72.7043 C.2       0 UNK         0.4909 
      3 O         -82.7719   28.2074  -72.0704 O.2       0 UNK        -0.5240 
      4 N         -83.1131   29.3086  -74.0138 N.am      1 UNK        -0.4739 
      5 CA        -82.1908   28.5840  -74.9066 C.3       1 UNK         0.0864 
      6 C6        -80.7165   28.6441  -74.4220 C.3       11 UNK        -0.0881 
      7 S7        -79.5205   28.4867  -75.7899 S.3       11 UNK        -0.2682 
      8 C8        -78.1513   29.5386  -75.2037 C.3       11 UNK         0.0289 
      9 C9        -77.5633   29.0875  -73.8689 C.ar      11 UNK        -0.0687 
     10 C10       -77.2678   27.7417  -73.6311 C.ar      11 UNK        -0.0823 
     11 C11       -76.7234   27.3326  -72.4100 C.ar      11 UNK        -0.0830 
     12 C12       -76.4734   28.2837  -71.4163 C.ar      11 UNK        -0.1021 
     13 C13       -76.7765   29.6314  -71.6349 C.ar      11 UNK        -0.0753 
     14 C14       -77.3125   30.0267  -72.8645 C.ar      11 UNK        -0.0933 
     15 C15       -76.5846   30.6583  -70.5282 C.3       11 UNK         0.0166 
     16 S16       -75.1733   31.7627  -70.8414 S.3       11 UNK        -0.2615 
     17 C17       -73.7556   30.7137  -70.3706 C.3       11 UNK        -0.0865 
     18 CA        -72.7241   30.5647  -71.5190 C.3       10 UNK         0.0862 
     19 C         -71.3942   29.9314  -71.0071 C.2       10 UNK         0.5551 
     20 N         -70.8832   28.8526  -71.5885 N.am      10 UNK        -0.7319 
     21 O         -70.8029   30.4404  -70.0578 O.2       10 UNK        -0.5018 
     22 N         -73.3127   29.8930  -72.6880 N.am      10 UNK        -0.4509 
     23 C         -72.8633   30.0146  -73.9404 C.2       10 UNK         0.4899 
     24 O         -71.9692   30.7891  -74.2885 O.2       10 UNK        -0.4839 
     25 CA        -73.5218   29.0959  -74.9823 C.3       9 UNK         0.0222 
     26 CB        -74.4188   29.9079  -75.9284 C.3       9 UNK        -0.1966 
     27 N         -72.5396   28.3442  -75.7710 N.am      9 UNK        -0.4218 
     28 C         -71.5613   27.5666  -75.2809 C.2       9 UNK         0.5020 
     29 O         -71.3937   27.3696  -74.0754 O.2       9 UNK        -0.5274 
     30 CA        -70.6320   26.8683  -76.2936 C.3       8 UNK         0.0270 
     31 CB        -70.0642   25.5468  -75.7413 C.3       8 UNK        -0.1976 
     32 N         -71.2984   26.6000  -77.5717 N.am      8 UNK        -0.4313 
     33 C         -71.2622   27.4081  -78.6409 C.2       8 UNK         0.5041 
     34 O         -70.6743   28.4898  -78.6507 O.2       8 UNK        -0.5577 
     35 CA        -72.0062   26.9582  -79.9132 C.3       7 UNK         0.0284 
     36 CB        -71.0094   26.4239  -80.9549 C.3       7 UNK        -0.1958 
     37 N         -73.0380   25.9454  -79.6768 N.am      7 UNK        -0.4454 
     38 C         -74.1895   26.1611  -79.0277 C.2       7 UNK         0.5089 
     39 O         -74.5160   27.2554  -78.5660 O.2       7 UNK        -0.5125 
     40 CA        -75.1283   24.9535  -78.8259 C.3       6 UNK         0.0408 
     41 CB        -74.7049   23.6764  -79.5877 C.3       6 UNK        -0.1791 
     42 N         -75.3169   24.6590  -77.4018 N.am      6 UNK        -0.4762 
     43 C         -74.3575   24.3951  -76.4981 C.2       6 UNK         0.5007 
     44 O         -73.1581   24.3316  -76.7746 O.2       6 UNK        -0.5032 
     45 CA        -74.8072   24.1913  -75.0353 C.3       5 UNK         0.0783 
     46 C46       -74.6162   25.5138  -74.2592 C.3       11 UNK        -0.0857 
     47 S47       -74.7546   25.3483  -72.4513 S.3       11 UNK        -0.2512 
     48 C48       -76.4707   25.8552  -72.1430 C.3       11 UNK         0.0225 
     49 N         -76.1832   23.6720  -74.9679 N.am      5 UNK        -0.4615 
     50 C         -76.4976   22.3915  -75.2025 C.2       4 UNK         0.5053 
     51 O         -75.6520   21.5035  -75.3252 O.2       4 UNK        -0.5105 
     52 CA        -77.9936   22.0503  -75.3588 C.3       4 UNK         0.0263 
     53 CB        -78.2317   20.5536  -75.6381 C.3       4 UNK        -0.1981 
     54 N         -78.8113   22.4457  -74.2095 N.am      4 UNK        -0.4224 
     55 C         -79.2901   23.6750  -73.9881 C.2       3 UNK         0.4895 
     56 O         -78.9672   24.6637  -74.6507 O.2       3 UNK        -0.5091 
     57 CA        -80.2821   23.8239  -72.8221 C.3       3 UNK         0.0250 
     58 CB        -79.6420   24.5375  -71.6221 C.3       3 UNK        -0.1996 
     59 N         -81.4714   24.5665  -73.2353 N.am      3 UNK        -0.4254 
     60 C         -82.4478   24.0794  -74.0143 C.2       2 UNK         0.5004 
     61 O         -82.4675   22.9258  -74.4457 O.2       2 UNK        -0.5226 
     62 CA        -83.6110   25.0272  -74.3541 C.3       2 UNK         0.0269 
     63 CB        -84.8017   24.7741  -73.4150 C.3       2 UNK        -0.1926 
     64 N         -83.2226   26.4356  -74.2588 N.am      2 UNK        -0.4687 
     65 C         -82.6295   27.1355  -75.2329 C.2       1 UNK         0.5165 
     66 O         -82.4443   26.6857  -76.3647 O.2       1 UNK        -0.5079 
     67 H67       -83.8093   30.5574  -71.1876 H         1 UNK         0.0900 
     68 H68       -85.1302   29.4555  -71.5861 H         1 UNK         0.0900 
     69 H69       -84.7214   30.7772  -72.6823 H         1 UNK         0.0900 
     70 H70       -83.6359   30.0440  -74.4704 H         1 UNK         0.2959 
     71 H71       -82.2505   29.1296  -75.8502 H         1 UNK         0.1079 
     72 H72       -80.5067   27.8792  -73.6716 H         1 UNK         0.0837 
     73 H73       -80.5329   29.5999  -73.9285 H         1 UNK         0.0837 
     74 H74       -77.3643   29.5265  -75.9572 H         1 UNK         0.0685 
     75 H75       -78.5053   30.5690  -75.1429 H         1 UNK         0.0685 
     76 H76       -77.4835   27.0078  -74.3955 H         1 UNK         0.1434 
     77 H77       -76.0718   27.9682  -70.4629 H         1 UNK         0.1329 
     78 H78       -77.5458   31.0696  -73.0307 H         1 UNK         0.1335 
     79 H79       -77.4877   31.2655  -70.4505 H         1 UNK         0.0680 
     80 H80       -76.4651   30.1738  -69.5578 H         1 UNK         0.0680 
     81 H81       -74.0996   29.7325  -70.0398 H         1 UNK         0.1032 
     82 H82       -73.2954   31.1786  -69.4965 H         1 UNK         0.1032 
     83 H83       -72.4503   31.5747  -71.8306 H         1 UNK         0.0461 
     84 H84       -71.3143   28.4290  -72.4041 H         1 UNK         0.3453 
     85 H85       -70.0215   28.4711  -71.2333 H         1 UNK         0.3453 
     86 H86       -74.0603   29.2424  -72.4941 H         1 UNK         0.2984 
     87 H87       -74.1482   28.3716  -74.4601 H         1 UNK         0.0554 
     88 H88       -74.9657   29.2579  -76.6118 H         1 UNK         0.0847 
     89 H89       -75.1542   30.4849  -75.3664 H         1 UNK         0.0847 
     90 H90       -73.8401   30.6136  -76.5257 H         1 UNK         0.0847 
     91 H91       -72.5924   28.4511  -76.7739 H         1 UNK         0.3141 
     92 H92       -69.7881   27.5418  -76.4567 H         1 UNK         0.0743 
     93 H93       -69.4658   25.7203  -74.8460 H         1 UNK         0.0784 
     94 H94       -70.8569   24.8482  -75.4717 H         1 UNK         0.0784 
     95 H95       -69.4174   25.0569  -76.4692 H         1 UNK         0.0784 
     96 H96       -71.8614   25.7556  -77.6090 H         1 UNK         0.3213 
     97 H97       -72.4937   27.8424  -80.3303 H         1 UNK         0.0855 
     98 H98       -70.2442   27.1682  -81.1804 H         1 UNK         0.0814 
     99 H99       -71.5069   26.1807  -81.8940 H         1 UNK         0.0814 
    100 H100      -70.4970   25.5279  -80.6020 H         1 UNK         0.0814 
    101 H101      -72.8412   25.0104  -80.0035 H         1 UNK         0.3105 
    102 H102      -76.1019   25.2590  -79.2119 H         1 UNK         0.0547 
    103 H103      -74.6257   23.8621  -80.6597 H         1 UNK         0.0837 
    104 H104      -73.7482   23.2824  -79.2430 H         1 UNK         0.0837 
    105 H105      -75.4449   22.8864  -79.4596 H         1 UNK         0.0837 
    106 H106      -76.2675   24.7278  -77.0682 H         1 UNK         0.3020 
    107 H107      -74.1318   23.4494  -74.6020 H         1 UNK         0.1245 
    108 H108      -73.6098   25.8915  -74.4298 H         1 UNK         0.0781 
    109 H109      -75.2857   26.2840  -74.6362 H         1 UNK         0.0781 
    110 H110      -76.7213   25.6243  -71.1066 H         1 UNK         0.0836 
    111 H111      -77.1263   25.2420  -72.7570 H         1 UNK         0.0836 
    112 H112      -76.9405   24.3370  -74.8562 H         1 UNK         0.3022 
    113 H113      -78.3454   22.5994  -76.2352 H         1 UNK         0.0747 
    114 H114      -79.2872   20.3459  -75.8157 H         1 UNK         0.0793 
    115 H115      -77.6885   20.2286  -76.5267 H         1 UNK         0.0793 
    116 H116      -77.9014   19.9294  -74.8067 H         1 UNK         0.0793 
    117 H117      -79.0867   21.7003  -73.5859 H         1 UNK         0.3047 
    118 H118      -80.5980   22.8303  -72.4960 H         1 UNK         0.0822 
    119 H119      -80.3268   24.5740  -70.7746 H         1 UNK         0.0807 
    120 H120      -79.3623   25.5634  -71.8651 H         1 UNK         0.0807 
    121 H121      -78.7459   24.0139  -71.2872 H         1 UNK         0.0807 
    122 H122      -81.5236   25.5346  -72.9549 H         1 UNK         0.2946 
    123 H123      -83.9269   24.8064  -75.3765 H         1 UNK         0.1144 
    124 H124      -85.6553   25.3978  -73.6813 H         1 UNK         0.0793 
    125 H125      -84.5471   24.9799  -72.3744 H         1 UNK         0.0793 
    126 H126      -85.1301   23.7353  -73.4720 H         1 UNK         0.0793 
    127 H127      -83.3086   26.8883  -73.3528 H         1 UNK         0.2896 
@<TRIPOS>BOND
     1    1    2 1    
     2    1   67 1    
     3    1   68 1    
     4    1   69 1    
     5    2    3 2    
     6    2    4 am   BACKBONE|DICT|INTERRES
     7    4    5 1    
     8    4   70 1    
     9    5    6 1    
    10    5   65 1    
    11    5   71 1    
    12    6    7 1    
    13    6   72 1    
    14    6   73 1    
    15    7    8 1    
    16    8    9 1    
    17    8   74 1    
    18    8   75 1    
    19    9   10 ar   
    20    9   14 ar   
    21   10   11 ar   
    22   10   76 1    
    23   11   12 ar   
    24   11   48 1    
    25   12   13 ar   
    26   12   77 1    
    27   13   14 ar   
    28   13   15 1    
    29   14   78 1    
    30   15   16 1    
    31   15   79 1    
    32   15   80 1    
    33   16   17 1    
    34   17   18 1    
    35   17   81 1    
    36   17   82 1    
    37   18   19 1    
    38   18   22 1    
    39   18   83 1    
    40   19   20 am   BACKBONE|DICT|INTERRES
    41   19   21 2    
    42   20   84 1    
    43   20   85 1    
    44   22   23 am   BACKBONE|DICT|INTERRES
    45   22   86 1    
    46   23   24 2    
    47   23   25 1    
    48   25   26 1    
    49   25   27 1    
    50   25   87 1    
    51   26   88 1    
    52   26   89 1    
    53   26   90 1    
    54   27   28 am   BACKBONE|DICT|INTERRES
    55   27   91 1    
    56   28   29 2    
    57   28   30 1    
    58   30   31 1    
    59   30   32 1    
    60   30   92 1    
    61   31   93 1    
    62   31   94 1    
    63   31   95 1    
    64   32   33 am   BACKBONE|DICT|INTERRES
    65   32   96 1    
    66   33   34 2    
    67   33   35 1    
    68   35   36 1    
    69   35   37 1    
    70   35   97 1    
    71   36   98 1    
    72   36   99 1    
    73   36  100 1    
    74   37   38 am   BACKBONE|DICT|INTERRES
    75   37  101 1    
    76   38   39 2    
    77   38   40 1    
    78   40   41 1    
    79   40   42 1    
    80   40  102 1    
    81   41  103 1    
    82   41  104 1    
    83   41  105 1    
    84   42   43 am   BACKBONE|DICT|INTERRES
    85   42  106 1    
    86   43   44 2    
    87   43   45 1    
    88   45   46 1    
    89   45   49 1    
    90   45  107 1    
    91   46   47 1    
    92   46  108 1    
    93   46  109 1    
    94   47   48 1    
    95   48  110 1    
    96   48  111 1    
    97   49   50 am   BACKBONE|DICT|INTERRES
    98   49  112 1    
    99   50   51 2    
   100   50   52 1    
   101   52   53 1    
   102   52   54 1    
   103   52  113 1    
   104   53  114 1    
   105   53  115 1    
   106   53  116 1    
   107   54   55 am   BACKBONE|DICT|INTERRES
   108   54  117 1    
   109   55   56 2    
   110   55   57 1    
   111   57   58 1    
   112   57   59 1    
   113   57  118 1    
   114   58  119 1    
   115   58  120 1    
   116   58  121 1    
   117   59   60 am   BACKBONE|DICT|INTERRES
   118   59  122 1    
   119   60   61 2    
   120   60   62 1    
   121   62   63 1    
   122   62   64 1    
   123   62  123 1    
   124   63  124 1    
   125   63  125 1    
   126   63  126 1    
   127   64   65 am   BACKBONE|DICT|INTERRES
   128   64  127 1    
   129   65   66 2    
@<TRIPOS>SUBSTRUCTURE
     1 UNK         1 GROUP             0       ****    0 ROOT    
