@<TRIPOS>MOLECULE
3R135
127   129    1
SMALL
USER_CHARGES


@<TRIPOS>ATOM
      1 CA        -80.5390   28.3985  -70.7196 C.3       0 UNK        -0.1998 
      2 C         -80.8572   27.8385  -72.0970 C.2       0 UNK         0.4909 
      3 O         -80.4199   26.7358  -72.4207 O.2       0 UNK        -0.5240 
      4 N         -81.6459   28.5765  -72.8927 N.am      1 UNK        -0.4739 
      5 CA        -81.9981   28.3085  -74.3010 C.3       1 UNK         0.0864 
      6 C6        -80.8068   28.5240  -75.2745 C.3       11 UNK        -0.0881 
      7 S7        -80.1070   30.2086  -75.1666 S.3       11 UNK        -0.2682 
      8 C8        -78.3163   29.8922  -75.2654 C.3       11 UNK         0.0289 
      9 C9        -77.7575   29.3267  -73.9677 C.ar      11 UNK        -0.0687 
     10 C10       -77.5647   27.9516  -73.8226 C.ar      11 UNK        -0.0823 
     11 C11       -77.0697   27.4225  -72.6277 C.ar      11 UNK        -0.0830 
     12 C12       -76.7434   28.2851  -71.5756 C.ar      11 UNK        -0.1021 
     13 C13       -76.9434   29.6644  -71.7039 C.ar      11 UNK        -0.0753 
     14 C14       -77.4445   30.1778  -72.9049 C.ar      11 UNK        -0.0933 
     15 C15       -76.7135   30.5949  -70.5205 C.3       11 UNK         0.0166 
     16 S16       -75.4585   31.8717  -70.8545 S.3       11 UNK        -0.2615 
     17 C17       -73.9024   31.0017  -70.4675 C.3       11 UNK        -0.0865 
     18 CA        -72.9534   30.9116  -71.6903 C.3       10 UNK         0.0862 
     19 C         -71.5152   30.5006  -71.2496 C.2       10 UNK         0.5551 
     20 N         -70.9429   29.4018  -71.7261 N.am      10 UNK        -0.7319 
     21 O         -70.8982   31.2059  -70.4548 O.2       10 UNK        -0.5018 
     22 N         -73.5354   30.0834  -72.7572 N.am      10 UNK        -0.4509 
     23 C         -73.1551   30.1083  -74.0380 C.2       10 UNK         0.4899 
     24 O         -72.3412   30.9054  -74.5093 O.2       10 UNK        -0.4839 
     25 CA        -73.7836   29.0366  -74.9438 C.3       9 UNK         0.0222 
     26 CB        -74.7149   29.6811  -75.9812 C.3       9 UNK        -0.1966 
     27 N         -72.7757   28.2184  -75.6288 N.am      9 UNK        -0.4218 
     28 C         -71.7796   27.5435  -75.0305 C.2       9 UNK         0.5020 
     29 O         -71.6351   27.5001  -73.8072 O.2       9 UNK        -0.5274 
     30 CA        -70.7924   26.7601  -75.9182 C.3       8 UNK         0.0270 
     31 CB        -70.4772   25.3755  -75.3217 C.3       8 UNK        -0.1976 
     32 N         -71.2711   26.5885  -77.2925 N.am      8 UNK        -0.4313 
     33 C         -70.9890   27.4145  -78.3104 C.2       8 UNK         0.5041 
     34 O         -70.2819   28.4159  -78.1953 O.2       8 UNK        -0.5577 
     35 CA        -71.5945   27.0897  -79.6906 C.3       7 UNK         0.0284 
     36 CB        -70.5317   26.4620  -80.6075 C.3       7 UNK        -0.1958 
     37 N         -72.7645   26.2081  -79.6425 N.am      7 UNK        -0.4454 
     38 C         -73.9475   26.5302  -79.1032 C.2       7 UNK         0.5089 
     39 O         -74.1855   27.6264  -78.5953 O.2       7 UNK        -0.5125 
     40 CA        -75.0396   25.4410  -79.0793 C.3       6 UNK         0.0408 
     41 CB        -74.7100   24.1879  -79.9224 C.3       6 UNK        -0.1791 
     42 N         -75.3796   25.0525  -77.7057 N.am      6 UNK        -0.4762 
     43 C         -74.5337   24.6096  -76.7595 C.2       6 UNK         0.5007 
     44 O         -73.3246   24.4574  -76.9408 O.2       6 UNK        -0.5032 
     45 CA        -75.1361   24.2951  -75.3731 C.3       5 UNK         0.0783 
     46 C46       -75.0246   25.5465  -74.4725 C.3       11 UNK        -0.0857 
     47 S47       -75.3284   25.2261  -72.7062 S.3       11 UNK        -0.2512 
     48 C48       -76.9917   25.9125  -72.4468 C.3       11 UNK         0.0225 
     49 N         -76.5107   23.7823  -75.4876 N.am      5 UNK        -0.4615 
     50 C         -76.8055   22.5664  -75.9676 C.2       4 UNK         0.5053 
     51 O         -75.9519   21.7128  -76.2153 O.2       4 UNK        -0.5105 
     52 CA        -78.2925   22.2600  -76.2262 C.3       4 UNK         0.0263 
     53 CB        -78.5049   20.8980  -76.9150 C.3       4 UNK        -0.1981 
     54 N         -79.0836   22.2923  -74.9963 N.am      4 UNK        -0.4224 
     55 C         -79.6095   23.3948  -74.4517 C.2       3 UNK         0.4895 
     56 O         -79.4138   24.5311  -74.8901 O.2       3 UNK        -0.5091 
     57 CA        -80.4694   23.1805  -73.1981 C.3       3 UNK         0.0250 
     58 CB        -79.6322   23.3299  -71.9180 C.3       3 UNK        -0.1996 
     59 N         -81.5704   24.1421  -73.1657 N.am      3 UNK        -0.4254 
     60 C         -82.8196   23.8801  -73.5770 C.2       2 UNK         0.5004 
     61 O         -83.1809   22.7800  -73.9982 O.2       2 UNK        -0.5226 
     62 CA        -83.8600   25.0148  -73.4957 C.3       2 UNK         0.0269 
     63 CB        -84.7394   24.8464  -72.2455 C.3       2 UNK        -0.1926 
     64 N         -83.2673   26.3531  -73.4821 N.am      2 UNK        -0.4687 
     65 C         -82.6982   26.9466  -74.5406 C.2       1 UNK         0.5165 
     66 O         -82.7265   26.4606  -75.6729 O.2       1 UNK        -0.5079 
     67 H67       -79.4605   28.4331  -70.5728 H         1 UNK         0.0900 
     68 H68       -80.9673   27.7609  -69.9470 H         1 UNK         0.0900 
     69 H69       -80.9297   29.4073  -70.5885 H         1 UNK         0.0900 
     70 H70       -81.9870   29.4605  -72.5412 H         1 UNK         0.2959 
     71 H71       -82.7561   29.0507  -74.5564 H         1 UNK         0.1079 
     72 H72       -80.0364   27.7766  -75.0870 H         1 UNK         0.0837 
     73 H73       -81.1195   28.3783  -76.3101 H         1 UNK         0.0837 
     74 H74       -78.1077   29.2229  -76.1016 H         1 UNK         0.0685 
     75 H75       -77.8134   30.8322  -75.4964 H         1 UNK         0.0685 
     76 H76       -77.8357   27.2848  -74.6290 H         1 UNK         0.1434 
     77 H77       -76.3848   27.8750  -70.6413 H         1 UNK         0.1329 
     78 H78       -77.6142   31.2413  -73.0032 H         1 UNK         0.1335 
     79 H79       -77.6560   31.0944  -70.2918 H         1 UNK         0.0680 
     80 H80       -76.4454   30.0373  -69.6218 H         1 UNK         0.0680 
     81 H81       -74.1083   30.0057  -70.0717 H         1 UNK         0.1032 
     82 H82       -73.4306   31.5540  -69.6523 H         1 UNK         0.1032 
     83 H83       -72.8480   31.9214  -72.0920 H         1 UNK         0.0461 
     84 H84       -70.0123   29.1665  -71.4215 H         1 UNK         0.3453 
     85 H85       -71.4072   28.8102  -72.4094 H         1 UNK         0.3453 
     86 H86       -74.2213   29.4031  -72.4636 H         1 UNK         0.2984 
     87 H87       -74.3835   28.3710  -74.3212 H         1 UNK         0.0554 
     88 H88       -75.3159   28.9308  -76.4950 H         1 UNK         0.0847 
     89 H89       -75.4041   30.3787  -75.5052 H         1 UNK         0.0847 
     90 H90       -74.1568   30.2404  -76.7331 H         1 UNK         0.0847 
     91 H91       -72.8286   28.1945  -76.6383 H         1 UNK         0.3141 
     92 H92       -69.8614   27.3307  -75.9279 H         1 UNK         0.0743 
     93 H93       -69.9955   25.4693  -74.3475 H         1 UNK         0.0784 
     94 H94       -71.3792   24.7801  -75.1793 H         1 UNK         0.0784 
     95 H95       -69.7987   24.8111  -75.9615 H         1 UNK         0.0784 
     96 H96       -71.8989   25.8043  -77.4487 H         1 UNK         0.3213 
     97 H97       -71.9106   28.0371  -80.1329 H         1 UNK         0.0855 
     98 H98       -69.6581   27.1100  -80.6929 H         1 UNK         0.0814 
     99 H99       -70.9164   26.3077  -81.6158 H         1 UNK         0.0814 
    100 H100      -70.1866   25.4999  -80.2266 H         1 UNK         0.0814 
    101 H101      -72.6468   25.2759  -80.0121 H         1 UNK         0.3105 
    102 H102      -75.9338   25.8987  -79.5048 H         1 UNK         0.0547 
    103 H103      -74.5069   24.4510  -80.9614 H         1 UNK         0.0837 
    104 H104      -73.8473   23.6420  -79.5387 H         1 UNK         0.0837 
    105 H105      -75.5520   23.4957  -79.9319 H         1 UNK         0.0837 
    106 H106      -76.3480   25.1757  -77.4473 H         1 UNK         0.3020 
    107 H107      -74.5160   23.5088  -74.9354 H         1 UNK         0.1245 
    108 H108      -74.0086   25.9355  -74.5142 H         1 UNK         0.0781 
    109 H109      -75.6641   26.3462  -74.8419 H         1 UNK         0.0781 
    110 H110      -77.3180   25.6574  -71.4378 H         1 UNK         0.0836 
    111 H111      -77.6892   25.4176  -73.1208 H         1 UNK         0.0836 
    112 H112      -77.2731   24.4101  -75.2626 H         1 UNK         0.3022 
    113 H113      -78.6627   23.0286  -76.9087 H         1 UNK         0.0747 
    114 H114      -79.5569   20.7311  -77.1476 H         1 UNK         0.0793 
    115 H115      -77.9561   20.8460  -77.8565 H         1 UNK         0.0793 
    116 H116      -78.1636   20.0702  -76.2920 H         1 UNK         0.0793 
    117 H117      -79.2453   21.4022  -74.5468 H         1 UNK         0.3047 
    118 H118      -80.8644   22.1624  -73.2209 H         1 UNK         0.0822 
    119 H119      -80.2004   23.0177  -71.0417 H         1 UNK         0.0807 
    120 H120      -79.3247   24.3617  -71.7561 H         1 UNK         0.0807 
    121 H121      -78.7307   22.7167  -71.9559 H         1 UNK         0.0807 
    122 H122      -81.3150   25.0951  -72.9153 H         1 UNK         0.2946 
    123 H123      -84.4985   24.9305  -74.3783 H         1 UNK         0.1144 
    124 H124      -85.5300   25.5962  -72.2117 H         1 UNK         0.0793 
    125 H125      -84.1560   24.9294  -71.3276 H         1 UNK         0.0793 
    126 H126      -85.2226   23.8683  -72.2371 H         1 UNK         0.0793 
    127 H127      -83.1926   26.8145  -72.5869 H         1 UNK         0.2896 
@<TRIPOS>BOND
     1    1    2 1    
     2    1   67 1    
     3    1   68 1    
     4    1   69 1    
     5    2    3 2    
     6    2    4 am   BACKBONE|DICT|INTERRES
     7    4    5 1    
     8    4   70 1    
     9    5    6 1    
    10    5   65 1    
    11    5   71 1    
    12    6    7 1    
    13    6   72 1    
    14    6   73 1    
    15    7    8 1    
    16    8    9 1    
    17    8   74 1    
    18    8   75 1    
    19    9   10 ar   
    20    9   14 ar   
    21   10   11 ar   
    22   10   76 1    
    23   11   12 ar   
    24   11   48 1    
    25   12   13 ar   
    26   12   77 1    
    27   13   14 ar   
    28   13   15 1    
    29   14   78 1    
    30   15   16 1    
    31   15   79 1    
    32   15   80 1    
    33   16   17 1    
    34   17   18 1    
    35   17   81 1    
    36   17   82 1    
    37   18   19 1    
    38   18   22 1    
    39   18   83 1    
    40   19   20 am   BACKBONE|DICT|INTERRES
    41   19   21 2    
    42   20   84 1    
    43   20   85 1    
    44   22   23 am   BACKBONE|DICT|INTERRES
    45   22   86 1    
    46   23   24 2    
    47   23   25 1    
    48   25   26 1    
    49   25   27 1    
    50   25   87 1    
    51   26   88 1    
    52   26   89 1    
    53   26   90 1    
    54   27   28 am   BACKBONE|DICT|INTERRES
    55   27   91 1    
    56   28   29 2    
    57   28   30 1    
    58   30   31 1    
    59   30   32 1    
    60   30   92 1    
    61   31   93 1    
    62   31   94 1    
    63   31   95 1    
    64   32   33 am   BACKBONE|DICT|INTERRES
    65   32   96 1    
    66   33   34 2    
    67   33   35 1    
    68   35   36 1    
    69   35   37 1    
    70   35   97 1    
    71   36   98 1    
    72   36   99 1    
    73   36  100 1    
    74   37   38 am   BACKBONE|DICT|INTERRES
    75   37  101 1    
    76   38   39 2    
    77   38   40 1    
    78   40   41 1    
    79   40   42 1    
    80   40  102 1    
    81   41  103 1    
    82   41  104 1    
    83   41  105 1    
    84   42   43 am   BACKBONE|DICT|INTERRES
    85   42  106 1    
    86   43   44 2    
    87   43   45 1    
    88   45   46 1    
    89   45   49 1    
    90   45  107 1    
    91   46   47 1    
    92   46  108 1    
    93   46  109 1    
    94   47   48 1    
    95   48  110 1    
    96   48  111 1    
    97   49   50 am   BACKBONE|DICT|INTERRES
    98   49  112 1    
    99   50   51 2    
   100   50   52 1    
   101   52   53 1    
   102   52   54 1    
   103   52  113 1    
   104   53  114 1    
   105   53  115 1    
   106   53  116 1    
   107   54   55 am   BACKBONE|DICT|INTERRES
   108   54  117 1    
   109   55   56 2    
   110   55   57 1    
   111   57   58 1    
   112   57   59 1    
   113   57  118 1    
   114   58  119 1    
   115   58  120 1    
   116   58  121 1    
   117   59   60 am   BACKBONE|DICT|INTERRES
   118   59  122 1    
   119   60   61 2    
   120   60   62 1    
   121   62   63 1    
   122   62   64 1    
   123   62  123 1    
   124   63  124 1    
   125   63  125 1    
   126   63  126 1    
   127   64   65 am   BACKBONE|DICT|INTERRES
   128   64  127 1    
   129   65   66 2    
@<TRIPOS>SUBSTRUCTURE
     1 UNK         1 GROUP             0       ****    0 ROOT    
