@<TRIPOS>MOLECULE
3R135
127   129    1
SMALL
USER_CHARGES


@<TRIPOS>ATOM
      1 CA        -83.6750   23.2404  -73.4287 C.3       0 UNK        -0.1998 
      2 C         -83.0833   24.4046  -74.2078 C.2       0 UNK         0.4909 
      3 O         -83.2192   24.4548  -75.4308 O.2       0 UNK        -0.5240 
      4 N         -82.4188   25.3368  -73.5111 N.am      1 UNK        -0.4739 
      5 CA        -81.7473   26.5129  -74.0763 C.3       1 UNK         0.0864 
      6 C6        -81.2039   27.4301  -72.9489 C.3       11 UNK        -0.0881 
      7 S7        -81.0805   29.1779  -73.4550 S.3       11 UNK        -0.2682 
      8 C8        -80.2277   29.9235  -72.0248 C.3       11 UNK         0.0289 
      9 C9        -78.7463   29.5657  -71.9604 C.ar      11 UNK        -0.0687 
     10 C10       -78.3216   28.4691  -71.2069 C.ar      11 UNK        -0.0823 
     11 C11       -76.9660   28.1405  -71.1250 C.ar      11 UNK        -0.0830 
     12 C12       -76.0258   28.9354  -71.7866 C.ar      11 UNK        -0.1021 
     13 C13       -76.4278   30.0515  -72.5329 C.ar      11 UNK        -0.0753 
     14 C14       -77.7936   30.3537  -72.6160 C.ar      11 UNK        -0.0933 
     15 C15       -75.4162   30.9664  -73.2301 C.3       11 UNK         0.0166 
     16 S16       -74.0095   30.1008  -74.0169 S.3       11 UNK        -0.2615 
     17 C17       -72.8047   29.9844  -72.6471 C.3       11 UNK        -0.0865 
     18 CA        -71.4506   30.6568  -72.9938 C.3       10 UNK         0.0862 
     19 C         -70.5532   30.7897  -71.7282 C.2       10 UNK         0.5551 
     20 N         -69.3950   30.1440  -71.6594 N.am      10 UNK        -0.7319 
     21 O         -70.9147   31.5002  -70.7935 O.2       10 UNK        -0.5018 
     22 N         -70.7991   29.9810  -74.1268 N.am      10 UNK        -0.4509 
     23 C         -69.8880   30.5205  -74.9425 C.2       10 UNK         0.4899 
     24 O         -69.5083   31.6888  -74.8586 O.2       10 UNK        -0.4839 
     25 CA        -69.2978   29.6265  -76.0536 C.3       9 UNK         0.0222 
     26 CB        -67.9220   29.0708  -75.6364 C.3       9 UNK        -0.1966 
     27 N         -70.1820   28.5543  -76.5416 N.am      9 UNK        -0.4218 
     28 C         -70.6394   27.4687  -75.9012 C.2       9 UNK         0.5020 
     29 O         -70.3707   27.2012  -74.7288 O.2       9 UNK        -0.5274 
     30 CA        -71.6207   26.5837  -76.6918 C.3       8 UNK         0.0270 
     31 CB        -71.9826   25.2849  -75.9478 C.3       8 UNK        -0.1976 
     32 N         -72.8472   27.3269  -76.9940 N.am      8 UNK        -0.4313 
     33 C         -72.9801   28.2079  -77.9962 C.2       8 UNK         0.5041 
     34 O         -72.0710   28.4461  -78.7942 O.2       8 UNK        -0.5577 
     35 CA        -74.2888   29.0133  -78.1103 C.3       7 UNK         0.0284 
     36 CB        -74.9699   28.8147  -79.4807 C.3       7 UNK        -0.1958 
     37 N         -75.2238   28.8202  -76.9945 N.am      7 UNK        -0.4454 
     38 C         -75.9985   27.7623  -76.7237 C.2       7 UNK         0.5089 
     39 O         -76.0958   26.7585  -77.4312 O.2       7 UNK        -0.5125 
     40 CA        -76.7940   27.8627  -75.4150 C.3       6 UNK         0.0408 
     41 CB        -78.1408   28.5579  -75.6378 C.3       6 UNK        -0.1791 
     42 N         -76.9627   26.5661  -74.7478 N.am      6 UNK        -0.4762 
     43 C         -75.9313   25.9203  -74.1796 C.2       6 UNK         0.5007 
     44 O         -74.7771   26.3511  -74.2226 O.2       6 UNK        -0.5032 
     45 CA        -76.1697   24.5916  -73.4376 C.3       5 UNK         0.0783 
     46 C46       -75.8349   24.7139  -71.9210 C.3       11 UNK        -0.0857 
     47 S47       -77.1907   25.3765  -70.8843 S.3       11 UNK        -0.2512 
     48 C48       -76.5230   26.9585  -70.2738 C.3       11 UNK         0.0225 
     49 N         -77.4765   23.9695  -73.6849 N.am      5 UNK        -0.4615 
     50 C         -77.7188   22.6714  -73.4608 C.2       4 UNK         0.5053 
     51 O         -76.8383   21.8410  -73.2321 O.2       4 UNK        -0.5105 
     52 CA        -79.1848   22.2206  -73.4510 C.3       4 UNK         0.0263 
     53 CB        -79.9591   22.8922  -72.3023 C.3       4 UNK        -0.1981 
     54 N         -79.8390   22.5102  -74.7247 N.am      4 UNK        -0.4224 
     55 C         -80.1259   21.5951  -75.6631 C.2       3 UNK         0.4895 
     56 O         -79.8563   20.3982  -75.5542 O.2       3 UNK        -0.5091 
     57 CA        -80.8536   22.0712  -76.9358 C.3       3 UNK         0.0250 
     58 CB        -82.2912   21.5262  -76.9805 C.3       3 UNK        -0.1996 
     59 N         -80.8852   23.5306  -77.0585 N.am      3 UNK        -0.4254 
     60 C         -79.8678   24.2562  -77.5434 C.2       2 UNK         0.5004 
     61 O         -78.8534   23.7606  -78.0338 O.2       2 UNK        -0.5226 
     62 CA        -79.9713   25.7873  -77.4371 C.3       2 UNK         0.0269 
     63 CB        -80.4201   26.3987  -78.7734 C.3       2 UNK        -0.1926 
     64 N         -80.8590   26.2593  -76.3648 N.am      2 UNK        -0.4687 
     65 C         -80.6376   26.0744  -75.0560 C.2       1 UNK         0.5165 
     66 O         -79.6295   25.5162  -74.6166 O.2       1 UNK        -0.5079 
     67 H67       -83.1578   22.3162  -73.6842 H         1 UNK         0.0900 
     68 H68       -84.7295   23.1211  -73.6760 H         1 UNK         0.0900 
     69 H69       -83.5952   23.3883  -72.3520 H         1 UNK         0.0900 
     70 H70       -82.3336   25.2284  -72.5108 H         1 UNK         0.2959 
     71 H71       -82.5070   27.0646  -74.6346 H         1 UNK         0.1079 
     72 H72       -81.8757   27.4072  -72.0891 H         1 UNK         0.0837 
     73 H73       -80.2410   27.0730  -72.5814 H         1 UNK         0.0837 
     74 H74       -80.3363   31.0074  -72.0842 H         1 UNK         0.0685 
     75 H75       -80.7320   29.6223  -71.1051 H         1 UNK         0.0685 
     76 H76       -79.0470   27.8664  -70.6779 H         1 UNK         0.1434 
     77 H77       -74.9796   28.6828  -71.7089 H         1 UNK         0.1329 
     78 H78       -78.1202   31.2129  -73.1857 H         1 UNK         0.1335 
     79 H79       -75.0487   31.7064  -72.5183 H         1 UNK         0.0680 
     80 H80       -75.9206   31.5318  -74.0152 H         1 UNK         0.0680 
     81 H81       -73.2379   30.4353  -71.7523 H         1 UNK         0.1032 
     82 H82       -72.6525   28.9301  -72.4082 H         1 UNK         0.1032 
     83 H83       -71.6671   31.6806  -73.3053 H         1 UNK         0.0461 
     84 H84       -68.8210   30.2414  -70.8368 H         1 UNK         0.3453 
     85 H85       -69.0956   29.5557  -72.4202 H         1 UNK         0.3453 
     86 H86       -70.9870   28.9896  -74.2303 H         1 UNK         0.2984 
     87 H87       -69.1379   30.2787  -76.9135 H         1 UNK         0.0554 
     88 H88       -67.4590   28.5084  -76.4472 H         1 UNK         0.0847 
     89 H89       -67.9910   28.4134  -74.7694 H         1 UNK         0.0847 
     90 H90       -67.2390   29.8798  -75.3737 H         1 UNK         0.0847 
     91 H91       -70.5496   28.6926  -77.4799 H         1 UNK         0.3141 
     92 H92       -71.1320   26.3014  -77.6269 H         1 UNK         0.0743 
     93 H93       -71.0941   24.6759  -75.7768 H         1 UNK         0.0784 
     94 H94       -72.4285   25.4854  -74.9735 H         1 UNK         0.0784 
     95 H95       -72.6860   24.6804  -76.5207 H         1 UNK         0.0784 
     96 H96       -73.6157   27.2088  -76.3464 H         1 UNK         0.3213 
     97 H97       -73.9893   30.0610  -78.0513 H         1 UNK         0.0855 
     98 H98       -75.8845   29.4022  -79.5602 H         1 UNK         0.0814 
     99 H99       -75.2219   27.7704  -79.6657 H         1 UNK         0.0814 
    100 H100      -74.3108   29.1314  -80.2899 H         1 UNK         0.0814 
    101 H101      -75.2075   29.5615  -76.3054 H         1 UNK         0.3105 
    102 H102      -76.2307   28.4862  -74.7246 H         1 UNK         0.0547 
    103 H103      -78.7649   28.4676  -74.7543 H         1 UNK         0.0837 
    104 H104      -77.9969   29.6229  -75.8219 H         1 UNK         0.0837 
    105 H105      -78.6884   28.1639  -76.4898 H         1 UNK         0.0837 
    106 H106      -77.8996   26.1787  -74.7142 H         1 UNK         0.3020 
    107 H107      -75.4218   23.9249  -73.8739 H         1 UNK         0.1245 
    108 H108      -74.9211   25.2892  -71.7621 H         1 UNK         0.0781 
    109 H109      -75.6058   23.7210  -71.5316 H         1 UNK         0.0781 
    110 H110      -76.8857   27.1131  -69.2567 H         1 UNK         0.0836 
    111 H111      -75.4361   26.9078  -70.1969 H         1 UNK         0.0836 
    112 H112      -78.2550   24.5913  -73.8847 H         1 UNK         0.3022 
    113 H113      -79.1937   21.1454  -73.2593 H         1 UNK         0.0747 
    114 H114      -79.4721   22.7035  -71.3444 H         1 UNK         0.0793 
    115 H115      -80.9735   22.5016  -72.2298 H         1 UNK         0.0793 
    116 H116      -80.0224   23.9737  -72.4225 H         1 UNK         0.0793 
    117 H117      -80.0269   23.4857  -74.9192 H         1 UNK         0.3047 
    118 H118      -80.3151   21.6539  -77.7897 H         1 UNK         0.0822 
    119 H119      -82.2956   20.4355  -76.9603 H         1 UNK         0.0807 
    120 H120      -82.8037   21.8337  -77.8921 H         1 UNK         0.0807 
    121 H121      -82.8835   21.8677  -76.1323 H         1 UNK         0.0807 
    122 H122      -81.6931   24.0051  -76.6641 H         1 UNK         0.2946 
    123 H123      -78.9572   26.1298  -77.2265 H         1 UNK         0.1144 
    124 H124      -80.3902   27.4880  -78.7409 H         1 UNK         0.0793 
    125 H125      -81.4346   26.0960  -79.0353 H         1 UNK         0.0793 
    126 H126      -79.7647   26.0833  -79.5866 H         1 UNK         0.0793 
    127 H127      -81.7292   26.6829  -76.6551 H         1 UNK         0.2896 
@<TRIPOS>BOND
     1    1    2 1    
     2    1   67 1    
     3    1   68 1    
     4    1   69 1    
     5    2    3 2    
     6    2    4 am   BACKBONE|DICT|INTERRES
     7    4    5 1    
     8    4   70 1    
     9    5    6 1    
    10    5   65 1    
    11    5   71 1    
    12    6    7 1    
    13    6   72 1    
    14    6   73 1    
    15    7    8 1    
    16    8    9 1    
    17    8   74 1    
    18    8   75 1    
    19    9   10 ar   
    20    9   14 ar   
    21   10   11 ar   
    22   10   76 1    
    23   11   12 ar   
    24   11   48 1    
    25   12   13 ar   
    26   12   77 1    
    27   13   14 ar   
    28   13   15 1    
    29   14   78 1    
    30   15   16 1    
    31   15   79 1    
    32   15   80 1    
    33   16   17 1    
    34   17   18 1    
    35   17   81 1    
    36   17   82 1    
    37   18   19 1    
    38   18   22 1    
    39   18   83 1    
    40   19   20 am   BACKBONE|DICT|INTERRES
    41   19   21 2    
    42   20   84 1    
    43   20   85 1    
    44   22   23 am   BACKBONE|DICT|INTERRES
    45   22   86 1    
    46   23   24 2    
    47   23   25 1    
    48   25   26 1    
    49   25   27 1    
    50   25   87 1    
    51   26   88 1    
    52   26   89 1    
    53   26   90 1    
    54   27   28 am   BACKBONE|DICT|INTERRES
    55   27   91 1    
    56   28   29 2    
    57   28   30 1    
    58   30   31 1    
    59   30   32 1    
    60   30   92 1    
    61   31   93 1    
    62   31   94 1    
    63   31   95 1    
    64   32   33 am   BACKBONE|DICT|INTERRES
    65   32   96 1    
    66   33   34 2    
    67   33   35 1    
    68   35   36 1    
    69   35   37 1    
    70   35   97 1    
    71   36   98 1    
    72   36   99 1    
    73   36  100 1    
    74   37   38 am   BACKBONE|DICT|INTERRES
    75   37  101 1    
    76   38   39 2    
    77   38   40 1    
    78   40   41 1    
    79   40   42 1    
    80   40  102 1    
    81   41  103 1    
    82   41  104 1    
    83   41  105 1    
    84   42   43 am   BACKBONE|DICT|INTERRES
    85   42  106 1    
    86   43   44 2    
    87   43   45 1    
    88   45   46 1    
    89   45   49 1    
    90   45  107 1    
    91   46   47 1    
    92   46  108 1    
    93   46  109 1    
    94   47   48 1    
    95   48  110 1    
    96   48  111 1    
    97   49   50 am   BACKBONE|DICT|INTERRES
    98   49  112 1    
    99   50   51 2    
   100   50   52 1    
   101   52   53 1    
   102   52   54 1    
   103   52  113 1    
   104   53  114 1    
   105   53  115 1    
   106   53  116 1    
   107   54   55 am   BACKBONE|DICT|INTERRES
   108   54  117 1    
   109   55   56 2    
   110   55   57 1    
   111   57   58 1    
   112   57   59 1    
   113   57  118 1    
   114   58  119 1    
   115   58  120 1    
   116   58  121 1    
   117   59   60 am   BACKBONE|DICT|INTERRES
   118   59  122 1    
   119   60   61 2    
   120   60   62 1    
   121   62   63 1    
   122   62   64 1    
   123   62  123 1    
   124   63  124 1    
   125   63  125 1    
   126   63  126 1    
   127   64   65 am   BACKBONE|DICT|INTERRES
   128   64  127 1    
   129   65   66 2    
@<TRIPOS>SUBSTRUCTURE
     1 UNK         1 GROUP             0       ****    0 ROOT    
