@<TRIPOS>MOLECULE
3R135
127   129    1
SMALL
USER_CHARGES


@<TRIPOS>ATOM
      1 CA        -80.0702   32.0519  -77.9254 C.3       0 UNK        -0.1998 
      2 C         -79.4569   30.7161  -77.5335 C.2       0 UNK         0.4909 
      3 O         -79.2326   29.8687  -78.3986 O.2       0 UNK        -0.5240 
      4 N         -79.1776   30.5270  -76.2384 N.am      1 UNK        -0.4739 
      5 CA        -78.6222   29.2953  -75.6710 C.3       1 UNK         0.0864 
      6 C6        -78.0057   29.5317  -74.2690 C.3       11 UNK        -0.0881 
      7 S7        -79.1449   30.3182  -73.0729 S.3       11 UNK        -0.2682 
      8 C8        -79.4742   28.9527  -71.9100 C.3       11 UNK         0.0289 
      9 C9        -78.2330   28.5505  -71.1232 C.ar      11 UNK        -0.0687 
     10 C10       -77.7755   27.2292  -71.1494 C.ar      11 UNK        -0.0823 
     11 C11       -76.6202   26.8629  -70.4499 C.ar      11 UNK        -0.0830 
     12 C12       -75.9249   27.8300  -69.7171 C.ar      11 UNK        -0.1021 
     13 C13       -76.3805   29.1503  -69.6731 C.ar      11 UNK        -0.0753 
     14 C14       -77.5402   29.5010  -70.3677 C.ar      11 UNK        -0.0933 
     15 C15       -75.6214   30.2047  -68.8831 C.3       11 UNK         0.0166 
     16 S16       -74.7101   31.3345  -69.9800 S.3       11 UNK        -0.2615 
     17 C17       -73.3980   30.2329  -70.6095 C.3       11 UNK        -0.0865 
     18 CA        -72.4343   30.9748  -71.5785 C.3       10 UNK         0.0862 
     19 C         -71.1217   30.1784  -71.8627 C.2       10 UNK         0.5551 
     20 N         -70.4936   30.3388  -73.0213 N.am      10 UNK        -0.7319 
     21 O         -70.6415   29.4343  -71.0109 O.2       10 UNK        -0.5018 
     22 N         -73.1260   31.4953  -72.7752 N.am      10 UNK        -0.4509 
     23 C         -73.6427   30.7642  -73.7720 C.2       10 UNK         0.4899 
     24 O         -73.5955   29.5327  -73.8220 O.2       10 UNK        -0.4839 
     25 CA        -74.3048   31.5418  -74.9211 C.3       9 UNK         0.0222 
     26 CB        -73.4209   32.7013  -75.4325 C.3       9 UNK        -0.1966 
     27 N         -74.5804   30.6056  -76.0075 N.am      9 UNK        -0.4218 
     28 C         -75.4146   30.7920  -77.0360 C.2       9 UNK         0.5020 
     29 O         -76.1022   31.8040  -77.1759 O.2       9 UNK        -0.5274 
     30 CA        -75.4798   29.6865  -78.1097 C.3       8 UNK         0.0270 
     31 CB        -75.0956   30.2526  -79.4882 C.3       8 UNK        -0.1976 
     32 N         -74.6094   28.5426  -77.8159 N.am      8 UNK        -0.4313 
     33 C         -74.9687   27.4534  -77.1270 C.2       8 UNK         0.5041 
     34 O         -76.0861   27.2711  -76.6353 O.2       8 UNK        -0.5577 
     35 CA        -73.8821   26.3928  -76.9388 C.3       7 UNK         0.0284 
     36 CB        -73.0863   26.6421  -75.6453 C.3       7 UNK        -0.1958 
     37 N         -74.5322   25.0923  -76.8722 N.am      7 UNK        -0.4454 
     38 C         -73.9949   23.9263  -77.2472 C.2       7 UNK         0.5089 
     39 O         -72.8577   23.8093  -77.7077 O.2       7 UNK        -0.5125 
     40 CA        -74.8931   22.6896  -77.0633 C.3       6 UNK         0.0408 
     41 CB        -74.1379   21.3502  -77.1932 C.3       6 UNK        -0.1791 
     42 N         -75.6534   22.7642  -75.8127 N.am      6 UNK        -0.4762 
     43 C         -75.1794   22.7473  -74.5561 C.2       6 UNK         0.5007 
     44 O         -74.0016   22.5456  -74.2589 O.2       6 UNK        -0.5032 
     45 CA        -76.2160   23.0029  -73.4436 C.3       5 UNK         0.0783 
     46 C46       -76.3543   24.5184  -73.1420 C.3       11 UNK        -0.0857 
     47 S47       -75.1024   25.0952  -71.9478 S.3       11 UNK        -0.2512 
     48 C48       -76.1181   25.4260  -70.4731 C.3       11 UNK         0.0225 
     49 N         -77.5081   22.4086  -73.7968 N.am      5 UNK        -0.4615 
     50 C         -77.8048   21.1070  -73.6768 C.2       4 UNK         0.5053 
     51 O         -77.0684   20.2834  -73.1341 O.2       4 UNK        -0.5105 
     52 CA        -79.1453   20.6415  -74.2747 C.3       4 UNK         0.0263 
     53 CB        -80.2571   20.7056  -73.2151 C.3       4 UNK        -0.1981 
     54 N         -79.5454   21.4266  -75.4458 N.am      4 UNK        -0.4224 
     55 C         -78.9291   21.3922  -76.6373 C.2       3 UNK         0.4895 
     56 O         -78.0214   20.6102  -76.9179 O.2       3 UNK        -0.5091 
     57 CA        -79.3745   22.4314  -77.6826 C.3       3 UNK         0.0250 
     58 CB        -80.4137   21.8231  -78.6378 C.3       3 UNK        -0.1996 
     59 N         -79.9164   23.6607  -77.0901 N.am      3 UNK        -0.4254 
     60 C         -79.2037   24.5389  -76.3716 C.2       2 UNK         0.5004 
     61 O         -78.0004   24.4152  -76.1303 O.2       2 UNK        -0.5226 
     62 CA        -79.9824   25.6966  -75.7456 C.3       2 UNK         0.0269 
     63 CB        -80.4148   25.3390  -74.3102 C.3       2 UNK        -0.1926 
     64 N         -79.1551   26.9009  -75.7357 N.am      2 UNK        -0.4687 
     65 C         -79.6474   28.1438  -75.6702 C.2       1 UNK         0.5165 
     66 O         -80.8542   28.3929  -75.5889 O.2       1 UNK        -0.5079 
     67 H67       -81.0300   31.8953  -78.4168 H         1 UNK         0.0900 
     68 H68       -79.4120   32.5757  -78.6182 H         1 UNK         0.0900 
     69 H69       -80.2323   32.6950  -77.0605 H         1 UNK         0.0900 
     70 H70       -79.4136   31.2390  -75.5620 H         1 UNK         0.2959 
     71 H71       -77.8162   28.9892  -76.3328 H         1 UNK         0.1079 
     72 H72       -77.6075   28.6004  -73.8618 H         1 UNK         0.0837 
     73 H73       -77.1400   30.1878  -74.3672 H         1 UNK         0.0837 
     74 H74       -80.2491   29.2659  -71.2094 H         1 UNK         0.0685 
     75 H75       -79.8817   28.1056  -72.4642 H         1 UNK         0.0685 
     76 H76       -78.3182   26.4891  -71.7189 H         1 UNK         0.1434 
     77 H77       -75.0259   27.5551  -69.1823 H         1 UNK         0.1329 
     78 H78       -77.8899   30.5242  -70.3416 H         1 UNK         0.1335 
     79 H79       -76.3265   30.7849  -68.2863 H         1 UNK         0.0680 
     80 H80       -74.9295   29.7432  -68.1767 H         1 UNK         0.0680 
     81 H81       -73.8487   29.3712  -71.1049 H         1 UNK         0.1032 
     82 H82       -72.8577   29.8416  -69.7457 H         1 UNK         0.1032 
     83 H83       -72.0824   31.8622  -71.0510 H         1 UNK         0.0461 
     84 H84       -69.6402   29.8321  -73.1951 H         1 UNK         0.3453 
     85 H85       -70.8691   30.9550  -73.7234 H         1 UNK         0.3453 
     86 H86       -73.2051   32.5005  -72.8224 H         1 UNK         0.2984 
     87 H87       -75.2513   31.9399  -74.5503 H         1 UNK         0.0554 
     88 H88       -73.8837   33.2154  -76.2750 H         1 UNK         0.0847 
     89 H89       -72.4427   32.3467  -75.7595 H         1 UNK         0.0847 
     90 H90       -73.2584   33.4553  -74.6621 H         1 UNK         0.0847 
     91 H91       -74.1137   29.7133  -75.9039 H         1 UNK         0.3141 
     92 H92       -76.5139   29.3450  -78.1717 H         1 UNK         0.0743 
     93 H93       -74.0778   30.6447  -79.4963 H         1 UNK         0.0784 
     94 H94       -75.1700   29.4910  -80.2647 H         1 UNK         0.0784 
     95 H95       -75.7613   31.0679  -79.7755 H         1 UNK         0.0784 
     96 H96       -73.6652   28.6008  -78.1722 H         1 UNK         0.3213 
     97 H97       -73.2079   26.4181  -77.7980 H         1 UNK         0.0855 
     98 H98       -73.7365   26.6511  -74.7686 H         1 UNK         0.0814 
     99 H99       -72.5702   27.6021  -75.6778 H         1 UNK         0.0814 
    100 H100      -72.3293   25.8734  -75.4894 H         1 UNK         0.0814 
    101 H101      -75.4968   25.1238  -76.5598 H         1 UNK         0.3105 
    102 H102      -75.6316   22.7271  -77.8653 H         1 UNK         0.0547 
    103 H103      -73.6989   21.2472  -78.1860 H         1 UNK         0.0837 
    104 H104      -73.3253   21.2667  -76.4714 H         1 UNK         0.0837 
    105 H105      -74.8086   20.5036  -77.0459 H         1 UNK         0.0837 
    106 H106      -76.6287   23.0224  -75.9267 H         1 UNK         0.3020 
    107 H107      -75.8568   22.4981  -72.5432 H         1 UNK         0.1245 
    108 H108      -77.3421   24.7219  -72.7318 H         1 UNK         0.0781 
    109 H109      -76.2897   25.1263  -74.0473 H         1 UNK         0.0781 
    110 H110      -75.5111   25.2315  -69.5874 H         1 UNK         0.0836 
    111 H111      -76.9537   24.7268  -70.4172 H         1 UNK         0.0836 
    112 H112      -78.1537   23.0101  -74.2870 H         1 UNK         0.3022 
    113 H113      -79.0262   19.6013  -74.5859 H         1 UNK         0.0747 
    114 H114      -81.1978   20.3136  -73.6023 H         1 UNK         0.0793 
    115 H115      -79.9957   20.1087  -72.3401 H         1 UNK         0.0793 
    116 H116      -80.4330   21.7261  -72.8720 H         1 UNK         0.0793 
    117 H117      -80.3077   22.0760  -75.3214 H         1 UNK         0.3047 
    118 H118      -78.4916   22.7032  -78.2656 H         1 UNK         0.0822 
    119 H119      -80.6753   22.5188  -79.4354 H         1 UNK         0.0807 
    120 H120      -81.3314   21.5474  -78.1167 H         1 UNK         0.0807 
    121 H121      -80.0255   20.9209  -79.1129 H         1 UNK         0.0807 
    122 H122      -80.9024   23.8301  -77.2327 H         1 UNK         0.2946 
    123 H123      -80.8704   25.8829  -76.3547 H         1 UNK         0.1144 
    124 H124      -81.0140   24.4279  -74.2928 H         1 UNK         0.0793 
    125 H125      -81.0238   26.1285  -73.8697 H         1 UNK         0.0793 
    126 H126      -79.5558   25.1802  -73.6585 H         1 UNK         0.0793 
    127 H127      -78.1574   26.7496  -75.8598 H         1 UNK         0.2896 
@<TRIPOS>BOND
     1    1    2 1    
     2    1   67 1    
     3    1   68 1    
     4    1   69 1    
     5    2    3 2    
     6    2    4 am   BACKBONE|DICT|INTERRES
     7    4    5 1    
     8    4   70 1    
     9    5    6 1    
    10    5   65 1    
    11    5   71 1    
    12    6    7 1    
    13    6   72 1    
    14    6   73 1    
    15    7    8 1    
    16    8    9 1    
    17    8   74 1    
    18    8   75 1    
    19    9   10 ar   
    20    9   14 ar   
    21   10   11 ar   
    22   10   76 1    
    23   11   12 ar   
    24   11   48 1    
    25   12   13 ar   
    26   12   77 1    
    27   13   14 ar   
    28   13   15 1    
    29   14   78 1    
    30   15   16 1    
    31   15   79 1    
    32   15   80 1    
    33   16   17 1    
    34   17   18 1    
    35   17   81 1    
    36   17   82 1    
    37   18   19 1    
    38   18   22 1    
    39   18   83 1    
    40   19   20 am   BACKBONE|DICT|INTERRES
    41   19   21 2    
    42   20   84 1    
    43   20   85 1    
    44   22   23 am   BACKBONE|DICT|INTERRES
    45   22   86 1    
    46   23   24 2    
    47   23   25 1    
    48   25   26 1    
    49   25   27 1    
    50   25   87 1    
    51   26   88 1    
    52   26   89 1    
    53   26   90 1    
    54   27   28 am   BACKBONE|DICT|INTERRES
    55   27   91 1    
    56   28   29 2    
    57   28   30 1    
    58   30   31 1    
    59   30   32 1    
    60   30   92 1    
    61   31   93 1    
    62   31   94 1    
    63   31   95 1    
    64   32   33 am   BACKBONE|DICT|INTERRES
    65   32   96 1    
    66   33   34 2    
    67   33   35 1    
    68   35   36 1    
    69   35   37 1    
    70   35   97 1    
    71   36   98 1    
    72   36   99 1    
    73   36  100 1    
    74   37   38 am   BACKBONE|DICT|INTERRES
    75   37  101 1    
    76   38   39 2    
    77   38   40 1    
    78   40   41 1    
    79   40   42 1    
    80   40  102 1    
    81   41  103 1    
    82   41  104 1    
    83   41  105 1    
    84   42   43 am   BACKBONE|DICT|INTERRES
    85   42  106 1    
    86   43   44 2    
    87   43   45 1    
    88   45   46 1    
    89   45   49 1    
    90   45  107 1    
    91   46   47 1    
    92   46  108 1    
    93   46  109 1    
    94   47   48 1    
    95   48  110 1    
    96   48  111 1    
    97   49   50 am   BACKBONE|DICT|INTERRES
    98   49  112 1    
    99   50   51 2    
   100   50   52 1    
   101   52   53 1    
   102   52   54 1    
   103   52  113 1    
   104   53  114 1    
   105   53  115 1    
   106   53  116 1    
   107   54   55 am   BACKBONE|DICT|INTERRES
   108   54  117 1    
   109   55   56 2    
   110   55   57 1    
   111   57   58 1    
   112   57   59 1    
   113   57  118 1    
   114   58  119 1    
   115   58  120 1    
   116   58  121 1    
   117   59   60 am   BACKBONE|DICT|INTERRES
   118   59  122 1    
   119   60   61 2    
   120   60   62 1    
   121   62   63 1    
   122   62   64 1    
   123   62  123 1    
   124   63  124 1    
   125   63  125 1    
   126   63  126 1    
   127   64   65 am   BACKBONE|DICT|INTERRES
   128   64  127 1    
   129   65   66 2    
@<TRIPOS>SUBSTRUCTURE
     1 UNK         1 GROUP             0       ****    0 ROOT    
