@<TRIPOS>MOLECULE
3R135
127   129    1
SMALL
USER_CHARGES


@<TRIPOS>ATOM
      1 CA        -80.9503   33.1035  -77.6197 C.3       0 UNK        -0.1998 
      2 C         -80.6424   31.6303  -77.3971 C.2       0 UNK         0.4909 
      3 O         -80.2914   30.9291  -78.3468 O.2       0 UNK        -0.5240 
      4 N         -80.7603   31.1603  -76.1483 N.am      1 UNK        -0.4739 
      5 CA        -80.5576   29.7602  -75.7612 C.3       1 UNK         0.0864 
      6 C6        -80.2327   29.6368  -74.2483 C.3       11 UNK        -0.0881 
      7 S7        -79.2329   28.1582  -73.8674 S.3       11 UNK        -0.2682 
      8 C8        -79.3691   28.1133  -72.0553 C.3       11 UNK         0.0289 
      9 C9        -78.2450   27.2844  -71.4571 C.ar      11 UNK        -0.0687 
     10 C10       -78.4859   26.0193  -70.9099 C.ar      11 UNK        -0.0823 
     11 C11       -77.4320   25.2622  -70.3835 C.ar      11 UNK        -0.0830 
     12 C12       -76.1395   25.7936  -70.3808 C.ar      11 UNK        -0.1021 
     13 C13       -75.8903   27.0472  -70.9392 C.ar      11 UNK        -0.0753 
     14 C14       -76.9447   27.7922  -71.4676 C.ar      11 UNK        -0.0933 
     15 C15       -74.4733   27.5680  -71.0481 C.3       11 UNK         0.0166 
     16 S16       -73.7917   27.0180  -72.6333 S.3       11 UNK        -0.2615 
     17 C17       -72.6637   28.3840  -73.0526 C.3       11 UNK        -0.0865 
     18 CA        -73.3765   29.6470  -73.6105 C.3       10 UNK         0.0862 
     19 C         -72.3274   30.6976  -74.0807 C.2       10 UNK         0.5551 
     20 N         -72.2555   31.0505  -75.3596 N.am      10 UNK        -0.7319 
     21 O         -71.5625   31.2032  -73.2631 O.2       10 UNK        -0.5018 
     22 N         -74.4076   29.3283  -74.6120 N.am      10 UNK        -0.4509 
     23 C         -75.3942   30.1626  -74.9697 C.2       10 UNK         0.4899 
     24 O         -75.6019   31.2424  -74.4135 O.2       10 UNK        -0.4839 
     25 CA        -76.2965   29.7326  -76.1467 C.3       9 UNK         0.0222 
     26 CB        -76.9109   30.9377  -76.8879 C.3       9 UNK        -0.1966 
     27 N         -75.6476   28.8245  -77.1003 N.am      9 UNK        -0.4218 
     28 C         -74.5094   29.0229  -77.7818 C.2       9 UNK         0.5020 
     29 O         -73.8273   30.0487  -77.7230 O.2       9 UNK        -0.5274 
     30 CA        -74.0250   27.8291  -78.6267 C.3       8 UNK         0.0270 
     31 CB        -73.5679   28.2879  -80.0226 C.3       8 UNK        -0.1976 
     32 N         -72.9381   27.0734  -77.9905 N.am      8 UNK        -0.4313 
     33 C         -72.9153   26.6041  -76.7347 C.2       8 UNK         0.5041 
     34 O         -73.8203   26.7746  -75.9138 O.2       8 UNK        -0.5577 
     35 CA        -71.6634   25.8230  -76.3178 C.3       7 UNK         0.0284 
     36 CB        -70.4275   26.7460  -76.2558 C.3       7 UNK        -0.1958 
     37 N         -71.9228   25.2118  -75.0154 N.am      7 UNK        -0.4454 
     38 C         -71.1946   24.2556  -74.4285 C.2       7 UNK         0.5089 
     39 O         -70.1888   23.7566  -74.9350 O.2       7 UNK        -0.5125 
     40 CA        -71.6522   23.7655  -73.0451 C.3       6 UNK         0.0408 
     41 CB        -71.0520   24.6446  -71.9353 C.3       6 UNK        -0.1791 
     42 N         -73.1143   23.7243  -72.9168 N.am      6 UNK        -0.4762 
     43 C         -73.8427   22.6084  -73.0720 C.2       6 UNK         0.5007 
     44 O         -73.3565   21.5089  -73.3429 O.2       6 UNK        -0.5032 
     45 CA        -75.3700   22.7151  -72.8817 C.3       5 UNK         0.0783 
     46 C46       -75.7566   22.4754  -71.3994 C.3       11 UNK        -0.0857 
     47 S47       -77.5575   22.5753  -71.0944 S.3       11 UNK        -0.2512 
     48 C48       -77.6841   23.8721  -69.8170 C.3       11 UNK         0.0225 
     49 N         -75.9653   23.9346  -73.4390 N.am      5 UNK        -0.4615 
     50 C         -75.9890   24.2327  -74.7452 C.2       4 UNK         0.5053 
     51 O         -75.3159   23.6474  -75.5960 O.2       4 UNK        -0.5105 
     52 CA        -77.0241   25.2950  -75.1698 C.3       4 UNK         0.0263 
     53 CB        -76.9921   25.5925  -76.6842 C.3       4 UNK        -0.1981 
     54 N         -78.3959   24.9327  -74.7734 N.am      4 UNK        -0.4224 
     55 C         -79.0474   23.7864  -75.0500 C.2       3 UNK         0.4895 
     56 O         -78.5611   22.8340  -75.6602 O.2       3 UNK        -0.5091 
     57 CA        -80.5118   23.6918  -74.5932 C.3       3 UNK         0.0250 
     58 CB        -80.6097   23.4133  -73.0864 C.3       3 UNK        -0.1996 
     59 N         -81.2771   24.8938  -74.9303 N.am      3 UNK        -0.4254 
     60 C         -81.7693   25.1529  -76.1516 C.2       2 UNK         0.5004 
     61 O         -81.6366   24.4108  -77.1247 O.2       2 UNK        -0.5226 
     62 CA        -82.5065   26.4846  -76.3133 C.3       2 UNK         0.0269 
     63 CB        -83.7670   26.5420  -75.4235 C.3       2 UNK        -0.1926 
     64 N         -81.5682   27.5578  -76.0001 N.am      2 UNK        -0.4687 
     65 C         -81.7534   28.8691  -76.1715 C.2       1 UNK         0.5165 
     66 O         -82.7976   29.3654  -76.6036 O.2       1 UNK        -0.5079 
     67 H67       -80.0772   33.6113  -78.0287 H         1 UNK         0.0900 
     68 H68       -81.7711   33.2116  -78.3282 H         1 UNK         0.0900 
     69 H69       -81.2323   33.6059  -76.6946 H         1 UNK         0.0900 
     70 H70       -81.0891   31.7752  -75.4177 H         1 UNK         0.2959 
     71 H71       -79.6922   29.4034  -76.3252 H         1 UNK         0.1079 
     72 H72       -79.6471   30.4975  -73.9200 H         1 UNK         0.0837 
     73 H73       -81.1412   29.6428  -73.6419 H         1 UNK         0.0837 
     74 H74       -79.3153   29.1275  -71.6564 H         1 UNK         0.0685 
     75 H75       -80.3455   27.7164  -71.7732 H         1 UNK         0.0685 
     76 H76       -79.4914   25.6244  -70.8924 H         1 UNK         0.1434 
     77 H77       -75.3169   25.2263  -69.9697 H         1 UNK         0.1329 
     78 H78       -76.7488   28.7566  -71.9170 H         1 UNK         0.1335 
     79 H79       -73.8529   27.1978  -70.2307 H         1 UNK         0.0680 
     80 H80       -74.4696   28.6565  -70.9812 H         1 UNK         0.0680 
     81 H81       -72.0709   28.6353  -72.1709 H         1 UNK         0.1032 
     82 H82       -71.9573   27.9978  -73.7867 H         1 UNK         0.1032 
     83 H83       -73.8951   30.1111  -72.7700 H         1 UNK         0.0461 
     84 H84       -71.5720   31.7337  -75.6433 H         1 UNK         0.3453 
     85 H85       -72.8806   30.6482  -76.0506 H         1 UNK         0.3453 
     86 H86       -74.2971   28.4404  -75.0968 H         1 UNK         0.2984 
     87 H87       -77.1144   29.1650  -75.7033 H         1 UNK         0.0554 
     88 H88       -77.5493   30.6150  -77.7101 H         1 UNK         0.0847 
     89 H89       -76.1413   31.5923  -77.2983 H         1 UNK         0.0847 
     90 H90       -77.5282   31.5381  -76.2185 H         1 UNK         0.0847 
     91 H91       -76.0683   27.9097  -77.1704 H         1 UNK         0.3141 
     92 H92       -74.8606   27.1408  -78.7655 H         1 UNK         0.0743 
     93 H93       -72.6867   28.9288  -79.9692 H         1 UNK         0.0784 
     94 H94       -73.3280   27.4388  -80.6629 H         1 UNK         0.0784 
     95 H95       -74.3532   28.8566  -80.5226 H         1 UNK         0.0784 
     96 H96       -72.1316   26.8984  -78.5720 H         1 UNK         0.3213 
     97 H97       -71.4965   25.0282  -77.0476 H         1 UNK         0.0855 
     98 H98       -70.5738   27.5778  -75.5676 H         1 UNK         0.0814 
     99 H99       -70.2046   27.1738  -77.2336 H         1 UNK         0.0814 
    100 H100      -69.5354   26.2060  -75.9392 H         1 UNK         0.0814 
    101 H101      -72.7749   25.5491  -74.5799 H         1 UNK         0.3105 
    102 H102      -71.2430   22.7625  -72.9060 H         1 UNK         0.0547 
    103 H103      -71.3761   24.3162  -70.9479 H         1 UNK         0.0837 
    104 H104      -69.9626   24.5932  -71.9514 H         1 UNK         0.0837 
    105 H105      -71.3222   25.6937  -72.0466 H         1 UNK         0.0837 
    106 H106      -73.5889   24.5962  -72.7180 H         1 UNK         0.3020 
    107 H107      -75.7988   21.8906  -73.4567 H         1 UNK         0.1245 
    108 H108      -75.2269   23.1653  -70.7446 H         1 UNK         0.0781 
    109 H109      -75.4331   21.4794  -71.0906 H         1 UNK         0.0781 
    110 H110      -76.9887   23.6564  -69.0043 H         1 UNK         0.0836 
    111 H111      -78.6816   23.8314  -69.3768 H         1 UNK         0.0836 
    112 H112      -76.5536   24.4609  -72.8079 H         1 UNK         0.3022 
    113 H113      -76.7616   26.2131  -74.6403 H         1 UNK         0.0747 
    114 H114      -77.6590   26.4156  -76.9400 H         1 UNK         0.0793 
    115 H115      -75.9886   25.8589  -77.0105 H         1 UNK         0.0793 
    116 H116      -77.2943   24.7246  -77.2712 H         1 UNK         0.0793 
    117 H117      -78.8857   25.6382  -74.2411 H         1 UNK         0.3047 
    118 H118      -80.9636   22.8423  -75.1111 H         1 UNK         0.0822 
    119 H119      -80.0853   22.4922  -72.8287 H         1 UNK         0.0807 
    120 H120      -81.6459   23.2929  -72.7702 H         1 UNK         0.0807 
    121 H121      -80.1689   24.2144  -72.4972 H         1 UNK         0.0807 
    122 H122      -81.4529   25.5522  -74.1853 H         1 UNK         0.2946 
    123 H123      -82.8073   26.5794  -77.3593 H         1 UNK         0.1144 
    124 H124      -84.3975   25.6663  -75.5835 H         1 UNK         0.0793 
    125 H125      -83.5192   26.5785  -74.3624 H         1 UNK         0.0793 
    126 H126      -84.3770   27.4162  -75.6505 H         1 UNK         0.0793 
    127 H127      -80.6715   27.2570  -75.6407 H         1 UNK         0.2896 
@<TRIPOS>BOND
     1    1    2 1    
     2    1   67 1    
     3    1   68 1    
     4    1   69 1    
     5    2    3 2    
     6    2    4 am   BACKBONE|DICT|INTERRES
     7    4    5 1    
     8    4   70 1    
     9    5    6 1    
    10    5   65 1    
    11    5   71 1    
    12    6    7 1    
    13    6   72 1    
    14    6   73 1    
    15    7    8 1    
    16    8    9 1    
    17    8   74 1    
    18    8   75 1    
    19    9   10 ar   
    20    9   14 ar   
    21   10   11 ar   
    22   10   76 1    
    23   11   12 ar   
    24   11   48 1    
    25   12   13 ar   
    26   12   77 1    
    27   13   14 ar   
    28   13   15 1    
    29   14   78 1    
    30   15   16 1    
    31   15   79 1    
    32   15   80 1    
    33   16   17 1    
    34   17   18 1    
    35   17   81 1    
    36   17   82 1    
    37   18   19 1    
    38   18   22 1    
    39   18   83 1    
    40   19   20 am   BACKBONE|DICT|INTERRES
    41   19   21 2    
    42   20   84 1    
    43   20   85 1    
    44   22   23 am   BACKBONE|DICT|INTERRES
    45   22   86 1    
    46   23   24 2    
    47   23   25 1    
    48   25   26 1    
    49   25   27 1    
    50   25   87 1    
    51   26   88 1    
    52   26   89 1    
    53   26   90 1    
    54   27   28 am   BACKBONE|DICT|INTERRES
    55   27   91 1    
    56   28   29 2    
    57   28   30 1    
    58   30   31 1    
    59   30   32 1    
    60   30   92 1    
    61   31   93 1    
    62   31   94 1    
    63   31   95 1    
    64   32   33 am   BACKBONE|DICT|INTERRES
    65   32   96 1    
    66   33   34 2    
    67   33   35 1    
    68   35   36 1    
    69   35   37 1    
    70   35   97 1    
    71   36   98 1    
    72   36   99 1    
    73   36  100 1    
    74   37   38 am   BACKBONE|DICT|INTERRES
    75   37  101 1    
    76   38   39 2    
    77   38   40 1    
    78   40   41 1    
    79   40   42 1    
    80   40  102 1    
    81   41  103 1    
    82   41  104 1    
    83   41  105 1    
    84   42   43 am   BACKBONE|DICT|INTERRES
    85   42  106 1    
    86   43   44 2    
    87   43   45 1    
    88   45   46 1    
    89   45   49 1    
    90   45  107 1    
    91   46   47 1    
    92   46  108 1    
    93   46  109 1    
    94   47   48 1    
    95   48  110 1    
    96   48  111 1    
    97   49   50 am   BACKBONE|DICT|INTERRES
    98   49  112 1    
    99   50   51 2    
   100   50   52 1    
   101   52   53 1    
   102   52   54 1    
   103   52  113 1    
   104   53  114 1    
   105   53  115 1    
   106   53  116 1    
   107   54   55 am   BACKBONE|DICT|INTERRES
   108   54  117 1    
   109   55   56 2    
   110   55   57 1    
   111   57   58 1    
   112   57   59 1    
   113   57  118 1    
   114   58  119 1    
   115   58  120 1    
   116   58  121 1    
   117   59   60 am   BACKBONE|DICT|INTERRES
   118   59  122 1    
   119   60   61 2    
   120   60   62 1    
   121   62   63 1    
   122   62   64 1    
   123   62  123 1    
   124   63  124 1    
   125   63  125 1    
   126   63  126 1    
   127   64   65 am   BACKBONE|DICT|INTERRES
   128   64  127 1    
   129   65   66 2    
@<TRIPOS>SUBSTRUCTURE
     1 UNK         1 GROUP             0       ****    0 ROOT    
