@<TRIPOS>MOLECULE
3R135
127   129    1
SMALL
USER_CHARGES


@<TRIPOS>ATOM
      1 CA        -80.0840   32.2220  -73.1514 C.3       0 UNK        -0.1998 
      2 C         -79.6184   30.7751  -73.1896 C.2       0 UNK         0.4909 
      3 O         -78.4389   30.5161  -73.4167 O.2       0 UNK        -0.5240 
      4 N         -80.5333   29.8207  -72.9833 N.am      1 UNK        -0.4739 
      5 CA        -80.2696   28.3755  -72.9796 C.3       1 UNK         0.0864 
      6 C6        -81.2577   27.6550  -72.0224 C.3       11 UNK        -0.0881 
      7 S7        -80.5398   26.1873  -71.2154 S.3       11 UNK        -0.2682 
      8 C8        -79.7178   26.9170  -69.7595 C.3       11 UNK         0.0289 
      9 C9        -78.2262   27.0893  -70.0020 C.ar      11 UNK        -0.0687 
     10 C10       -77.3899   25.9744  -69.9299 C.ar      11 UNK        -0.0823 
     11 C11       -76.0225   26.0934  -70.1850 C.ar      11 UNK        -0.0830 
     12 C12       -75.4846   27.3492  -70.4778 C.ar      11 UNK        -0.1021 
     13 C13       -76.3103   28.4800  -70.5653 C.ar      11 UNK        -0.0753 
     14 C14       -77.6809   28.3393  -70.3135 C.ar      11 UNK        -0.0933 
     15 C15       -75.7638   29.8607  -70.9377 C.3       11 UNK         0.0166 
     16 S16       -74.2737   29.8148  -71.9915 S.3       11 UNK        -0.2615 
     17 C17       -74.3191   31.4503  -72.8012 C.3       11 UNK        -0.0865 
     18 CA        -75.0063   31.4139  -74.1937 C.3       10 UNK         0.0862 
     19 C         -75.0260   32.8245  -74.8503 C.2       10 UNK         0.5551 
     20 N         -74.4510   33.0180  -76.0311 N.am      10 UNK        -0.7319 
     21 O         -75.5755   33.7617  -74.2765 O.2       10 UNK        -0.5018 
     22 N         -74.4672   30.3394  -75.0432 N.am      10 UNK        -0.4509 
     23 C         -75.1085   29.7485  -76.0558 C.2       10 UNK         0.4899 
     24 O         -76.2150   30.1044  -76.4601 O.2       10 UNK        -0.4839 
     25 CA        -74.4275   28.5424  -76.7320 C.3       9 UNK         0.0222 
     26 CB        -73.6909   28.9673  -78.0164 C.3       9 UNK        -0.1966 
     27 N         -73.5611   27.7325  -75.8611 N.am      9 UNK        -0.4218 
     28 C         -72.3915   28.0499  -75.2830 C.2       9 UNK         0.5020 
     29 O         -71.8612   29.1581  -75.3661 O.2       9 UNK        -0.5274 
     30 CA        -71.6997   26.9510  -74.4621 C.3       8 UNK         0.0270 
     31 CB        -72.2639   26.9094  -73.0335 C.3       8 UNK        -0.1976 
     32 N         -71.8682   25.6399  -75.0903 N.am      8 UNK        -0.4313 
     33 C         -70.9680   25.0597  -75.8959 C.2       8 UNK         0.5041 
     34 O         -69.8562   25.5326  -76.1368 O.2       8 UNK        -0.5577 
     35 CA        -71.3660   23.7224  -76.5497 C.3       7 UNK         0.0284 
     36 CB        -70.9160   22.5419  -75.6737 C.3       7 UNK        -0.1958 
     37 N         -72.8030   23.6108  -76.8101 N.am      7 UNK        -0.4454 
     38 C         -73.4764   24.3448  -77.7069 C.2       7 UNK         0.5089 
     39 O         -72.9417   25.1323  -78.4872 O.2       7 UNK        -0.5125 
     40 CA        -75.0097   24.1926  -77.7273 C.3       6 UNK         0.0408 
     41 CB        -75.4276   23.2303  -78.8506 C.3       6 UNK        -0.1791 
     42 N         -75.6182   23.7507  -76.4639 N.am      6 UNK        -0.4762 
     43 C         -75.4943   24.3592  -75.2725 C.2       6 UNK         0.5007 
     44 O         -74.7462   25.3186  -75.0789 O.2       6 UNK        -0.5032 
     45 CA        -76.3782   23.8129  -74.1367 C.3       5 UNK         0.0783 
     46 C46       -76.2770   24.5954  -72.8058 C.3       11 UNK        -0.0857 
     47 S47       -74.7120   24.3262  -71.9009 S.3       11 UNK        -0.2512 
     48 C48       -75.1442   24.8490  -70.2037 C.3       11 UNK         0.0225 
     49 N         -77.7523   23.7902  -74.6286 N.am      5 UNK        -0.4615 
     50 C         -78.6654   22.8563  -74.3387 C.2       4 UNK         0.5053 
     51 O         -78.4504   21.9096  -73.5815 O.2       4 UNK        -0.5105 
     52 CA        -80.0497   22.9783  -75.0078 C.3       4 UNK         0.0263 
     53 CB        -81.0968   23.4700  -73.9969 C.3       4 UNK        -0.1981 
     54 N         -80.0594   23.8613  -76.1782 N.am      4 UNK        -0.4224 
     55 C         -79.4461   23.5880  -77.3394 C.2       3 UNK         0.4895 
     56 O         -78.8831   22.5183  -77.5744 O.2       3 UNK        -0.5091 
     57 CA        -79.4180   24.6920  -78.4134 C.3       3 UNK         0.0250 
     58 CB        -80.4453   24.3911  -79.5165 C.3       3 UNK        -0.1996 
     59 N         -79.6323   26.0571  -77.9191 N.am      3 UNK        -0.4254 
     60 C         -78.8811   26.6965  -77.0105 C.2       2 UNK         0.5004 
     61 O         -77.9397   26.1717  -76.4151 O.2       2 UNK        -0.5226 
     62 CA        -79.2354   28.1641  -76.7046 C.3       2 UNK         0.0269 
     63 CB        -80.4660   28.7009  -77.4725 C.3       2 UNK        -0.1926 
     64 N         -79.3910   28.4097  -75.2677 N.am      2 UNK        -0.4687 
     65 C         -80.2476   27.8158  -74.4231 C.2       1 UNK         0.5165 
     66 O         -81.0198   26.9158  -74.7609 O.2       1 UNK        -0.5079 
     67 H67       -79.8884   32.7032  -74.1092 H         1 UNK         0.0900 
     68 H68       -81.1504   32.3023  -72.9412 H         1 UNK         0.0900 
     69 H69       -79.5431   32.7682  -72.3792 H         1 UNK         0.0900 
     70 H70       -81.4982   30.0869  -72.8461 H         1 UNK         0.2959 
     71 H71       -79.2603   28.2239  -72.5926 H         1 UNK         0.1079 
     72 H72       -81.5855   28.3314  -71.2315 H         1 UNK         0.0837 
     73 H73       -82.1775   27.3649  -72.5335 H         1 UNK         0.0837 
     74 H74       -79.8679   26.2531  -68.9069 H         1 UNK         0.0685 
     75 H75       -80.1789   27.8663  -69.4843 H         1 UNK         0.0685 
     76 H76       -77.8152   25.0041  -69.7115 H         1 UNK         0.1434 
     77 H77       -74.4246   27.4275  -70.6733 H         1 UNK         0.1329 
     78 H78       -78.3289   29.2028  -70.3793 H         1 UNK         0.1335 
     79 H79       -76.5371   30.4225  -71.4637 H         1 UNK         0.0680 
     80 H80       -75.5382   30.4144  -70.0257 H         1 UNK         0.0680 
     81 H81       -73.2905   31.8019  -72.8998 H         1 UNK         0.1032 
     82 H82       -74.8188   32.1625  -72.1416 H         1 UNK         0.1032 
     83 H83       -76.0531   31.1702  -74.0170 H         1 UNK         0.0461 
     84 H84       -74.4706   33.9344  -76.4497 H         1 UNK         0.3453 
     85 H85       -74.0038   32.2510  -76.5067 H         1 UNK         0.3453 
     86 H86       -73.5311   30.0151  -74.8254 H         1 UNK         0.2984 
     87 H87       -75.2335   27.8682  -77.0278 H         1 UNK         0.0554 
     88 H88       -74.3692   29.4740  -78.7042 H         1 UNK         0.0847 
     89 H89       -73.2832   28.1030  -78.5413 H         1 UNK         0.0847 
     90 H90       -72.8689   29.6526  -77.8087 H         1 UNK         0.0847 
     91 H91       -73.9516   26.8198  -75.6286 H         1 UNK         0.3141 
     92 H92       -70.6378   27.1972  -74.3953 H         1 UNK         0.0743 
     93 H93       -72.0479   27.8391  -72.5064 H         1 UNK         0.0784 
     94 H94       -73.3467   26.7762  -73.0284 H         1 UNK         0.0784 
     95 H95       -71.8239   26.0987  -72.4528 H         1 UNK         0.0784 
     96 H96       -72.7822   25.2098  -74.9878 H         1 UNK         0.3213 
     97 H97       -70.8445   23.6570  -77.5072 H         1 UNK         0.0855 
     98 H98       -71.4168   22.5423  -74.7047 H         1 UNK         0.0814 
     99 H99       -69.8423   22.5850  -75.4848 H         1 UNK         0.0814 
    100 H100      -71.1191   21.5867  -76.1583 H         1 UNK         0.0814 
    101 H101      -73.3300   22.9785  -76.2258 H         1 UNK         0.3105 
    102 H102      -75.4258   25.1775  -77.9502 H         1 UNK         0.0547 
    103 H103      -75.0592   22.2194  -78.6726 H         1 UNK         0.0837 
    104 H104      -75.0305   23.5567  -79.8129 H         1 UNK         0.0837 
    105 H105      -76.5108   23.1775  -78.9527 H         1 UNK         0.0837 
    106 H106      -76.2708   22.9816  -76.5333 H         1 UNK         0.3020 
    107 H107      -76.0480   22.7872  -73.9563 H         1 UNK         0.1245 
    108 H108      -77.0891   24.2792  -72.1497 H         1 UNK         0.0781 
    109 H109      -76.4211   25.6652  -72.9715 H         1 UNK         0.0781 
    110 H110      -74.2269   25.0380  -69.6445 H         1 UNK         0.0836 
    111 H111      -75.6436   24.0210  -69.6981 H         1 UNK         0.0836 
    112 H112      -77.9872   24.5417  -75.2734 H         1 UNK         0.3022 
    113 H113      -80.3387   21.9782  -75.3376 H         1 UNK         0.0747 
    114 H114      -80.8642   24.4718  -73.6366 H         1 UNK         0.0793 
    115 H115      -82.0944   23.4947  -74.4355 H         1 UNK         0.0793 
    116 H116      -81.1409   22.8140  -73.1265 H         1 UNK         0.0793 
    117 H117      -80.4784   24.7742  -76.0552 H         1 UNK         0.3047 
    118 H118      -78.4226   24.6708  -78.8608 H         1 UNK         0.0822 
    119 H119      -80.3613   25.0973  -80.3427 H         1 UNK         0.0807 
    120 H120      -81.4675   24.4341  -79.1382 H         1 UNK         0.0807 
    121 H121      -80.2934   23.3934  -79.9313 H         1 UNK         0.0807 
    122 H122      -80.3999   26.5656  -78.3338 H         1 UNK         0.2946 
    123 H123      -78.3709   28.7462  -77.0247 H         1 UNK         0.1144 
    124 H124      -80.6395   29.7516  -77.2395 H         1 UNK         0.0793 
    125 H125      -81.3782   28.1570  -77.2237 H         1 UNK         0.0793 
    126 H126      -80.3204   28.6401  -78.5519 H         1 UNK         0.0793 
    127 H127      -78.7915   29.1308  -74.8768 H         1 UNK         0.2896 
@<TRIPOS>BOND
     1    1    2 1    
     2    1   67 1    
     3    1   68 1    
     4    1   69 1    
     5    2    3 2    
     6    2    4 am   BACKBONE|DICT|INTERRES
     7    4    5 1    
     8    4   70 1    
     9    5    6 1    
    10    5   65 1    
    11    5   71 1    
    12    6    7 1    
    13    6   72 1    
    14    6   73 1    
    15    7    8 1    
    16    8    9 1    
    17    8   74 1    
    18    8   75 1    
    19    9   10 ar   
    20    9   14 ar   
    21   10   11 ar   
    22   10   76 1    
    23   11   12 ar   
    24   11   48 1    
    25   12   13 ar   
    26   12   77 1    
    27   13   14 ar   
    28   13   15 1    
    29   14   78 1    
    30   15   16 1    
    31   15   79 1    
    32   15   80 1    
    33   16   17 1    
    34   17   18 1    
    35   17   81 1    
    36   17   82 1    
    37   18   19 1    
    38   18   22 1    
    39   18   83 1    
    40   19   20 am   BACKBONE|DICT|INTERRES
    41   19   21 2    
    42   20   84 1    
    43   20   85 1    
    44   22   23 am   BACKBONE|DICT|INTERRES
    45   22   86 1    
    46   23   24 2    
    47   23   25 1    
    48   25   26 1    
    49   25   27 1    
    50   25   87 1    
    51   26   88 1    
    52   26   89 1    
    53   26   90 1    
    54   27   28 am   BACKBONE|DICT|INTERRES
    55   27   91 1    
    56   28   29 2    
    57   28   30 1    
    58   30   31 1    
    59   30   32 1    
    60   30   92 1    
    61   31   93 1    
    62   31   94 1    
    63   31   95 1    
    64   32   33 am   BACKBONE|DICT|INTERRES
    65   32   96 1    
    66   33   34 2    
    67   33   35 1    
    68   35   36 1    
    69   35   37 1    
    70   35   97 1    
    71   36   98 1    
    72   36   99 1    
    73   36  100 1    
    74   37   38 am   BACKBONE|DICT|INTERRES
    75   37  101 1    
    76   38   39 2    
    77   38   40 1    
    78   40   41 1    
    79   40   42 1    
    80   40  102 1    
    81   41  103 1    
    82   41  104 1    
    83   41  105 1    
    84   42   43 am   BACKBONE|DICT|INTERRES
    85   42  106 1    
    86   43   44 2    
    87   43   45 1    
    88   45   46 1    
    89   45   49 1    
    90   45  107 1    
    91   46   47 1    
    92   46  108 1    
    93   46  109 1    
    94   47   48 1    
    95   48  110 1    
    96   48  111 1    
    97   49   50 am   BACKBONE|DICT|INTERRES
    98   49  112 1    
    99   50   51 2    
   100   50   52 1    
   101   52   53 1    
   102   52   54 1    
   103   52  113 1    
   104   53  114 1    
   105   53  115 1    
   106   53  116 1    
   107   54   55 am   BACKBONE|DICT|INTERRES
   108   54  117 1    
   109   55   56 2    
   110   55   57 1    
   111   57   58 1    
   112   57   59 1    
   113   57  118 1    
   114   58  119 1    
   115   58  120 1    
   116   58  121 1    
   117   59   60 am   BACKBONE|DICT|INTERRES
   118   59  122 1    
   119   60   61 2    
   120   60   62 1    
   121   62   63 1    
   122   62   64 1    
   123   62  123 1    
   124   63  124 1    
   125   63  125 1    
   126   63  126 1    
   127   64   65 am   BACKBONE|DICT|INTERRES
   128   64  127 1    
   129   65   66 2    
@<TRIPOS>SUBSTRUCTURE
     1 UNK         1 GROUP             0       ****    0 ROOT    
