@<TRIPOS>MOLECULE
3R135
127   129    1
SMALL
USER_CHARGES


@<TRIPOS>ATOM
      1 CA        -79.1827   21.1853  -71.9529 C.3       0 UNK        -0.1998 
      2 C         -80.2448   22.2517  -72.1691 C.2       0 UNK         0.4909 
      3 O         -81.1482   22.0590  -72.9838 O.2       0 UNK        -0.5240 
      4 N         -80.1361   23.3811  -71.4566 N.am      1 UNK        -0.4739 
      5 CA        -81.0110   24.5552  -71.5599 C.3       1 UNK         0.0864 
      6 C6        -80.6610   25.6439  -70.5085 C.3       11 UNK        -0.0881 
      7 S7        -78.8746   26.0176  -70.3446 S.3       11 UNK        -0.2682 
      8 C8        -78.8936   27.7729  -69.8687 C.3       11 UNK         0.0289 
      9 C9        -78.5582   28.6957  -71.0331 C.ar      11 UNK        -0.0687 
     10 C10       -79.5372   29.0428  -71.9703 C.ar      11 UNK        -0.0823 
     11 C11       -79.2505   29.9561  -72.9909 C.ar      11 UNK        -0.0830 
     12 C12       -77.9785   30.5319  -73.0588 C.ar      11 UNK        -0.1021 
     13 C13       -76.9804   30.1635  -72.1544 C.ar      11 UNK        -0.0753 
     14 C14       -77.2747   29.2428  -71.1443 C.ar      11 UNK        -0.0933 
     15 C15       -75.6024   30.7984  -72.2530 C.3       11 UNK         0.0166 
     16 S16       -74.7069   30.2585  -73.7454 S.3       11 UNK        -0.2615 
     17 C17       -73.3192   31.4514  -73.7318 C.3       11 UNK        -0.0865 
     18 CA        -71.9192   30.8332  -73.4781 C.3       10 UNK         0.0862 
     19 C         -71.7850   30.1794  -72.0730 C.2       10 UNK         0.5551 
     20 N         -71.7328   30.9882  -71.0229 N.am      10 UNK        -0.7319 
     21 O         -71.7526   28.9601  -71.9196 O.2       10 UNK        -0.5018 
     22 N         -71.5221   29.9491  -74.5802 N.am      10 UNK        -0.4509 
     23 C         -70.2590   29.6258  -74.8843 C.2       10 UNK         0.4899 
     24 O         -69.2729   30.0687  -74.2920 O.2       10 UNK        -0.4839 
     25 CA        -70.0846   28.6632  -76.0724 C.3       9 UNK         0.0222 
     26 CB        -68.6204   28.2341  -76.3124 C.3       9 UNK        -0.1966 
     27 N         -70.9836   27.5081  -75.9751 N.am      9 UNK        -0.4218 
     28 C         -70.9553   26.5227  -75.0622 C.2       9 UNK         0.5020 
     29 O         -70.0862   26.4192  -74.1953 O.2       9 UNK        -0.5274 
     30 CA        -72.0821   25.4684  -75.0987 C.3       8 UNK         0.0270 
     31 CB        -72.8470   25.4466  -73.7638 C.3       8 UNK        -0.1976 
     32 N         -73.0440   25.6534  -76.1893 N.am      8 UNK        -0.4313 
     33 C         -72.8183   25.3651  -77.4777 C.2       8 UNK         0.5041 
     34 O         -71.7803   24.8456  -77.8892 O.2       8 UNK        -0.5577 
     35 CA        -73.9141   25.7573  -78.4856 C.3       7 UNK         0.0284 
     36 CB        -74.9214   24.6091  -78.6537 C.3       7 UNK        -0.1958 
     37 N         -74.6405   26.9859  -78.1454 N.am      7 UNK        -0.4454 
     38 C         -74.1125   28.2008  -77.9475 C.2       7 UNK         0.5089 
     39 O         -72.9051   28.4328  -78.0033 O.2       7 UNK        -0.5125 
     40 CA        -75.0750   29.3523  -77.5941 C.3       6 UNK         0.0408 
     41 CB        -75.6464   30.0119  -78.8633 C.3       6 UNK        -0.1791 
     42 N         -76.1334   28.9890  -76.6404 N.am      6 UNK        -0.4762 
     43 C         -77.1666   28.1502  -76.8102 C.2       6 UNK         0.5007 
     44 O         -77.4232   27.5759  -77.8711 O.2       6 UNK        -0.5032 
     45 CA        -78.0043   27.8350  -75.5545 C.3       5 UNK         0.0783 
     46 C46       -79.4915   28.2353  -75.7298 C.3       11 UNK        -0.0857 
     47 S47       -79.7559   30.0394  -75.7303 S.3       11 UNK        -0.2512 
     48 C48       -80.3130   30.3302  -74.0168 C.3       11 UNK         0.0225 
     49 N         -77.8966   26.4275  -75.1642 N.am      5 UNK        -0.4615 
     50 C         -76.7828   25.6934  -75.0350 C.2       4 UNK         0.5053 
     51 O         -75.6458   26.1231  -75.2247 O.2       4 UNK        -0.5105 
     52 CA        -76.9599   24.2232  -74.6241 C.3       4 UNK         0.0263 
     53 CB        -76.7953   24.0697  -73.1046 C.3       4 UNK        -0.1981 
     54 N         -78.2667   23.6938  -75.0236 N.am      4 UNK        -0.4224 
     55 C         -78.5135   23.0685  -76.1838 C.2       3 UNK         0.4895 
     56 O         -77.6476   22.8212  -77.0229 O.2       3 UNK        -0.5091 
     57 CA        -79.9625   22.6273  -76.4633 C.3       3 UNK         0.0250 
     58 CB        -80.1373   21.1306  -76.1582 C.3       3 UNK        -0.1996 
     59 N         -80.9534   23.3979  -75.7063 N.am      3 UNK        -0.4254 
     60 C         -81.3911   24.6141  -76.0682 C.2       2 UNK         0.5004 
     61 O         -81.0583   25.1751  -77.1117 O.2       2 UNK        -0.5226 
     62 CA        -82.3393   25.3498  -75.0992 C.3       2 UNK         0.0269 
     63 CB        -83.8037   25.1240  -75.5079 C.3       2 UNK        -0.1926 
     64 N         -82.1699   24.9824  -73.6880 N.am      2 UNK        -0.4687 
     65 C         -81.0283   25.1100  -72.9979 C.2       1 UNK         0.5165 
     66 O         -79.9976   25.5719  -73.4846 O.2       1 UNK        -0.5079 
     67 H67       -78.4788   21.4646  -71.1691 H         1 UNK         0.0900 
     68 H68       -79.6503   20.2429  -71.6688 H         1 UNK         0.0900 
     69 H69       -78.6208   21.0242  -72.8725 H         1 UNK         0.0900 
     70 H70       -79.3546   23.4987  -70.8268 H         1 UNK         0.2959 
     71 H71       -82.0215   24.2082  -71.3334 H         1 UNK         0.1079 
     72 H72       -81.0056   25.3119  -69.5279 H         1 UNK         0.0837 
     73 H73       -81.2167   26.5609  -70.7122 H         1 UNK         0.0837 
     74 H74       -79.8614   28.0431  -69.4443 H         1 UNK         0.0685 
     75 H75       -78.1705   27.9137  -69.0639 H         1 UNK         0.0685 
     76 H76       -80.5243   28.6085  -71.8963 H         1 UNK         0.1434 
     77 H77       -77.7555   31.2508  -73.8358 H         1 UNK         0.1329 
     78 H78       -76.5117   28.9713  -70.4276 H         1 UNK         0.1335 
     79 H79       -75.0010   30.5655  -71.3727 H         1 UNK         0.0680 
     80 H80       -75.7228   31.8827  -72.2699 H         1 UNK         0.0680 
     81 H81       -73.5117   32.2377  -73.0002 H         1 UNK         0.1032 
     82 H82       -73.3166   31.9641  -74.6950 H         1 UNK         0.1032 
     83 H83       -71.2122   31.6657  -73.4880 H         1 UNK         0.0461 
     84 H84       -71.6535   30.5868  -70.1016 H         1 UNK         0.3453 
     85 H85       -71.7542   31.9901  -71.1309 H         1 UNK         0.3453 
     86 H86       -72.2758   29.5055  -75.0830 H         1 UNK         0.2984 
     87 H87       -70.4045   29.2159  -76.9568 H         1 UNK         0.0554 
     88 H88       -67.9937   29.0999  -76.5293 H         1 UNK         0.0847 
     89 H89       -68.5398   27.5555  -77.1615 H         1 UNK         0.0847 
     90 H90       -68.1904   27.7371  -75.4427 H         1 UNK         0.0847 
     91 H91       -71.7396   27.5075  -76.6531 H         1 UNK         0.3141 
     92 H92       -71.6029   24.4959  -75.2289 H         1 UNK         0.0743 
     93 H93       -72.1744   25.2630  -72.9249 H         1 UNK         0.0784 
     94 H94       -73.3520   26.3952  -73.5745 H         1 UNK         0.0784 
     95 H95       -73.5978   24.6569  -73.7528 H         1 UNK         0.0784 
     96 H96       -73.9605   26.0174  -75.9269 H         1 UNK         0.3213 
     97 H97       -73.4245   25.9286  -79.4464 H         1 UNK         0.0855 
     98 H98       -75.4689   24.4169  -77.7300 H         1 UNK         0.0814 
     99 H99       -74.4176   23.6826  -78.9327 H         1 UNK         0.0814 
    100 H100      -75.6502   24.8287  -79.4340 H         1 UNK         0.0814 
    101 H101      -75.6519   26.9170  -78.0702 H         1 UNK         0.3105 
    102 H102      -74.4766   30.1069  -77.0810 H         1 UNK         0.0547 
    103 H103      -76.2827   30.8616  -78.6163 H         1 UNK         0.0837 
    104 H104      -76.2343   29.3149  -79.4609 H         1 UNK         0.0837 
    105 H105      -74.8430   30.3830  -79.5009 H         1 UNK         0.0837 
    106 H106      -75.9850   29.3562  -75.7084 H         1 UNK         0.3020 
    107 H107      -77.5908   28.3941  -74.7147 H         1 UNK         0.1245 
    108 H108      -80.0897   27.8115  -74.9227 H         1 UNK         0.0781 
    109 H109      -79.9031   27.8159  -76.6501 H         1 UNK         0.0781 
    110 H110      -81.2377   29.7772  -73.8443 H         1 UNK         0.0836 
    111 H111      -80.5600   31.3862  -73.9003 H         1 UNK         0.0836 
    112 H112      -78.7650   26.0006  -74.8599 H         1 UNK         0.3022 
    113 H113      -76.1659   23.6499  -75.1076 H         1 UNK         0.0747 
    114 H114      -76.8269   23.0225  -72.8055 H         1 UNK         0.0793 
    115 H115      -75.8397   24.4743  -72.7694 H         1 UNK         0.0793 
    116 H116      -77.5776   24.5997  -72.5625 H         1 UNK         0.0793 
    117 H117      -79.0446   23.9199  -74.4168 H         1 UNK         0.3047 
    118 H118      -80.1464   22.7731  -77.5302 H         1 UNK         0.0822 
    119 H119      -81.1482   20.7939  -76.3882 H         1 UNK         0.0807 
    120 H120      -79.9380   20.9026  -75.1112 H         1 UNK         0.0807 
    121 H121      -79.4520   20.5290  -76.7570 H         1 UNK         0.0807 
    122 H122      -81.2641   23.0021  -74.8238 H         1 UNK         0.2946 
    123 H123      -82.1214   26.4161  -75.1889 H         1 UNK         0.1144 
    124 H124      -84.0925   24.0765  -75.4119 H         1 UNK         0.0793 
    125 H125      -83.9681   25.4134  -76.5470 H         1 UNK         0.0793 
    126 H126      -84.4835   25.7187  -74.8975 H         1 UNK         0.0793 
    127 H127      -82.9650   24.5501  -73.2389 H         1 UNK         0.2896 
@<TRIPOS>BOND
     1    1    2 1    
     2    1   67 1    
     3    1   68 1    
     4    1   69 1    
     5    2    3 2    
     6    2    4 am   BACKBONE|DICT|INTERRES
     7    4    5 1    
     8    4   70 1    
     9    5    6 1    
    10    5   65 1    
    11    5   71 1    
    12    6    7 1    
    13    6   72 1    
    14    6   73 1    
    15    7    8 1    
    16    8    9 1    
    17    8   74 1    
    18    8   75 1    
    19    9   10 ar   
    20    9   14 ar   
    21   10   11 ar   
    22   10   76 1    
    23   11   12 ar   
    24   11   48 1    
    25   12   13 ar   
    26   12   77 1    
    27   13   14 ar   
    28   13   15 1    
    29   14   78 1    
    30   15   16 1    
    31   15   79 1    
    32   15   80 1    
    33   16   17 1    
    34   17   18 1    
    35   17   81 1    
    36   17   82 1    
    37   18   19 1    
    38   18   22 1    
    39   18   83 1    
    40   19   20 am   BACKBONE|DICT|INTERRES
    41   19   21 2    
    42   20   84 1    
    43   20   85 1    
    44   22   23 am   BACKBONE|DICT|INTERRES
    45   22   86 1    
    46   23   24 2    
    47   23   25 1    
    48   25   26 1    
    49   25   27 1    
    50   25   87 1    
    51   26   88 1    
    52   26   89 1    
    53   26   90 1    
    54   27   28 am   BACKBONE|DICT|INTERRES
    55   27   91 1    
    56   28   29 2    
    57   28   30 1    
    58   30   31 1    
    59   30   32 1    
    60   30   92 1    
    61   31   93 1    
    62   31   94 1    
    63   31   95 1    
    64   32   33 am   BACKBONE|DICT|INTERRES
    65   32   96 1    
    66   33   34 2    
    67   33   35 1    
    68   35   36 1    
    69   35   37 1    
    70   35   97 1    
    71   36   98 1    
    72   36   99 1    
    73   36  100 1    
    74   37   38 am   BACKBONE|DICT|INTERRES
    75   37  101 1    
    76   38   39 2    
    77   38   40 1    
    78   40   41 1    
    79   40   42 1    
    80   40  102 1    
    81   41  103 1    
    82   41  104 1    
    83   41  105 1    
    84   42   43 am   BACKBONE|DICT|INTERRES
    85   42  106 1    
    86   43   44 2    
    87   43   45 1    
    88   45   46 1    
    89   45   49 1    
    90   45  107 1    
    91   46   47 1    
    92   46  108 1    
    93   46  109 1    
    94   47   48 1    
    95   48  110 1    
    96   48  111 1    
    97   49   50 am   BACKBONE|DICT|INTERRES
    98   49  112 1    
    99   50   51 2    
   100   50   52 1    
   101   52   53 1    
   102   52   54 1    
   103   52  113 1    
   104   53  114 1    
   105   53  115 1    
   106   53  116 1    
   107   54   55 am   BACKBONE|DICT|INTERRES
   108   54  117 1    
   109   55   56 2    
   110   55   57 1    
   111   57   58 1    
   112   57   59 1    
   113   57  118 1    
   114   58  119 1    
   115   58  120 1    
   116   58  121 1    
   117   59   60 am   BACKBONE|DICT|INTERRES
   118   59  122 1    
   119   60   61 2    
   120   60   62 1    
   121   62   63 1    
   122   62   64 1    
   123   62  123 1    
   124   63  124 1    
   125   63  125 1    
   126   63  126 1    
   127   64   65 am   BACKBONE|DICT|INTERRES
   128   64  127 1    
   129   65   66 2    
@<TRIPOS>SUBSTRUCTURE
     1 UNK         1 GROUP             0       ****    0 ROOT    
