@<TRIPOS>MOLECULE
3R135
127   129    1
SMALL
USER_CHARGES


@<TRIPOS>ATOM
      1 CA        -79.8388   28.2956  -78.2359 C.3       0 UNK        -0.1998 
      2 C         -79.7837   27.6941  -76.8403 C.2       0 UNK         0.4909 
      3 O         -78.8727   26.9182  -76.5434 O.2       0 UNK        -0.5240 
      4 N         -80.7365   28.0641  -75.9751 N.am      1 UNK        -0.4739 
      5 CA        -80.8979   27.5102  -74.6272 C.3       1 UNK         0.0864 
      6 C6        -81.7864   28.3979  -73.7219 C.3       11 UNK        -0.0881 
      7 S7        -81.1078   30.0870  -73.5258 S.3       11 UNK        -0.2682 
      8 C8        -80.7785   30.2117  -71.7350 C.3       11 UNK         0.0289 
      9 C9        -79.4286   29.6196  -71.3520 C.ar      11 UNK        -0.0687 
     10 C10       -79.3340   28.2793  -70.9665 C.ar      11 UNK        -0.0823 
     11 C11       -78.0905   27.7205  -70.6553 C.ar      11 UNK        -0.0830 
     12 C12       -76.9470   28.5213  -70.6741 C.ar      11 UNK        -0.1021 
     13 C13       -77.0302   29.8666  -71.0350 C.ar      11 UNK        -0.0753 
     14 C14       -78.2726   30.4111  -71.3810 C.ar      11 UNK        -0.0933 
     15 C15       -75.7648   30.7099  -71.0551 C.3       11 UNK         0.0166 
     16 S16       -74.8862   30.5296  -72.6394 S.3       11 UNK        -0.2615 
     17 C17       -73.1302   30.4586  -72.1328 C.3       11 UNK        -0.0865 
     18 CA        -72.3942   29.1548  -72.5619 C.3       10 UNK         0.0862 
     19 C         -72.8372   27.8797  -71.7896 C.2       10 UNK         0.5551 
     20 N         -72.8267   26.7031  -72.4026 N.am      10 UNK        -0.7319 
     21 O         -73.1660   27.9487  -70.6083 O.2       10 UNK        -0.5018 
     22 N         -72.3372   28.9958  -74.0278 N.am      10 UNK        -0.4509 
     23 C         -71.4244   29.5823  -74.8135 C.2       10 UNK         0.4899 
     24 O         -70.4910   30.2562  -74.3728 O.2       10 UNK        -0.4839 
     25 CA        -71.5909   29.4443  -76.3423 C.3       9 UNK         0.0222 
     26 CB        -70.2853   29.7275  -77.1171 C.3       9 UNK        -0.1966 
     27 N         -72.1976   28.1857  -76.7887 N.am      9 UNK        -0.4218 
     28 C         -71.7089   26.9405  -76.6625 C.2       9 UNK         0.5020 
     29 O         -70.6394   26.6818  -76.1089 O.2       9 UNK        -0.5274 
     30 CA        -72.5494   25.7838  -77.2473 C.3       8 UNK         0.0270 
     31 CB        -72.6341   24.5987  -76.2671 C.3       8 UNK        -0.1976 
     32 N         -73.9092   26.2184  -77.5749 N.am      8 UNK        -0.4313 
     33 C         -74.4075   26.4036  -78.8053 C.2       8 UNK         0.5041 
     34 O         -73.7955   26.1263  -79.8375 O.2       8 UNK        -0.5577 
     35 CA        -75.8086   27.0458  -78.9181 C.3       7 UNK         0.0284 
     36 CB        -76.8693   26.0071  -79.3139 C.3       7 UNK        -0.1958 
     37 N         -76.2393   27.7461  -77.7020 N.am      7 UNK        -0.4454 
     38 C         -75.6634   28.8641  -77.2370 C.2       7 UNK         0.5089 
     39 O         -74.7671   29.4629  -77.8305 O.2       7 UNK        -0.5125 
     40 CA        -76.0716   29.3373  -75.8331 C.3       6 UNK         0.0408 
     41 CB        -77.2005   30.3770  -75.8903 C.3       6 UNK        -0.1791 
     42 N         -76.4417   28.2434  -74.9277 N.am      6 UNK        -0.4762 
     43 C         -75.6079   27.2757  -74.5170 C.2       6 UNK         0.5007 
     44 O         -74.4424   27.2057  -74.9062 O.2       6 UNK        -0.5032 
     45 CA        -76.1324   26.1997  -73.5464 C.3       5 UNK         0.0783 
     46 C46       -77.6549   26.2837  -73.2893 C.3       11 UNK        -0.0857 
     47 S47       -78.2612   25.2394  -71.9137 S.3       11 UNK        -0.2512 
     48 C48       -77.9577   26.2279  -70.4064 C.3       11 UNK         0.0225 
     49 N         -75.7826   24.9021  -74.1064 N.am      5 UNK        -0.4615 
     50 C         -75.4281   23.8109  -73.4274 C.2       4 UNK         0.5053 
     51 O         -75.0864   23.8187  -72.2438 O.2       4 UNK        -0.5105 
     52 CA        -75.5416   22.4822  -74.2058 C.3       4 UNK         0.0263 
     53 CB        -75.4304   21.2496  -73.2902 C.3       4 UNK        -0.1981 
     54 N         -76.8061   22.4054  -74.9546 N.am      4 UNK        -0.4224 
     55 C         -77.0501   23.0006  -76.1289 C.2       3 UNK         0.4895 
     56 O         -76.2034   23.6599  -76.7311 O.2       3 UNK        -0.5091 
     57 CA        -78.4745   22.9093  -76.7016 C.3       3 UNK         0.0250 
     58 CB        -78.7979   21.4852  -77.1938 C.3       3 UNK        -0.1996 
     59 N         -79.5228   23.4390  -75.8149 N.am      3 UNK        -0.4254 
     60 C         -79.9635   22.9484  -74.6464 C.2       2 UNK         0.5004 
     61 O         -79.4817   21.9548  -74.0987 O.2       2 UNK        -0.5226 
     62 CA        -81.1316   23.7066  -73.9839 C.3       2 UNK         0.0269 
     63 CB        -81.4276   23.2122  -72.5551 C.3       2 UNK        -0.1926 
     64 N         -80.8539   25.1454  -73.9444 N.am      2 UNK        -0.4687 
     65 C         -81.4338   26.0653  -74.7254 C.2       1 UNK         0.5165 
     66 O         -82.3428   25.8089  -75.5184 O.2       1 UNK        -0.5079 
     67 H67       -80.6180   29.0531  -78.3217 H         1 UNK         0.0900 
     68 H68       -78.8861   28.7614  -78.4868 H         1 UNK         0.0900 
     69 H69       -80.0414   27.5155  -78.9693 H         1 UNK         0.0900 
     70 H70       -81.4609   28.7024  -76.2712 H         1 UNK         0.2959 
     71 H71       -79.9137   27.4829  -74.1698 H         1 UNK         0.1079 
     72 H72       -81.9065   27.9396  -72.7389 H         1 UNK         0.0837 
     73 H73       -82.7921   28.4815  -74.1385 H         1 UNK         0.0837 
     74 H74       -80.8025   31.2656  -71.4537 H         1 UNK         0.0685 
     75 H75       -81.5830   29.7354  -71.1725 H         1 UNK         0.0685 
     76 H76       -80.2172   27.6556  -70.9570 H         1 UNK         0.1434 
     77 H77       -75.9811   28.0924  -70.4419 H         1 UNK         0.1329 
     78 H78       -78.3391   31.4488  -71.6781 H         1 UNK         0.1335 
     79 H79       -75.1248   30.4081  -70.2250 H         1 UNK         0.0680 
     80 H80       -76.0018   31.7625  -70.8937 H         1 UNK         0.0680 
     81 H81       -73.0372   30.6063  -71.0561 H         1 UNK         0.1032 
     82 H82       -72.6262   31.3180  -72.5768 H         1 UNK         0.1032 
     83 H83       -71.3646   29.2715  -72.2189 H         1 UNK         0.0461 
     84 H84       -73.0999   25.8778  -71.8928 H         1 UNK         0.3453 
     85 H85       -72.5657   26.6344  -73.3733 H         1 UNK         0.3453 
     86 H86       -73.0791   28.4365  -74.4413 H         1 UNK         0.2984 
     87 H87       -72.3028   30.2215  -76.6229 H         1 UNK         0.0554 
     88 H88       -69.9165   30.7333  -76.9121 H         1 UNK         0.0847 
     89 H89       -70.4387   29.6563  -78.1939 H         1 UNK         0.0847 
     90 H90       -69.4931   29.0300  -76.8436 H         1 UNK         0.0847 
     91 H91       -73.0919   28.2955  -77.2524 H         1 UNK         0.3141 
     92 H92       -72.0362   25.4430  -78.1485 H         1 UNK         0.0743 
     93 H93       -71.6463   24.1813  -76.0686 H         1 UNK         0.0784 
     94 H94       -73.0603   24.8969  -75.3091 H         1 UNK         0.0784 
     95 H95       -73.2496   23.7948  -76.6715 H         1 UNK         0.0784 
     96 H96       -74.4648   26.5017  -76.7750 H         1 UNK         0.3213 
     97 H97       -75.7493   27.7823  -79.7226 H         1 UNK         0.0855 
     98 H98       -77.0678   25.3073  -78.5046 H         1 UNK         0.0814 
     99 H99       -76.5495   25.4259  -80.1798 H         1 UNK         0.0814 
    100 H100      -77.8117   26.4856  -79.5778 H         1 UNK         0.0814 
    101 H101      -76.9931   27.3247  -77.1658 H         1 UNK         0.3105 
    102 H102      -75.1936   29.8278  -75.4100 H         1 UNK         0.0547 
    103 H103      -76.9255   31.2141  -76.5333 H         1 UNK         0.0837 
    104 H104      -77.4088   30.7862  -74.9012 H         1 UNK         0.0837 
    105 H105      -78.1266   29.9588  -76.2798 H         1 UNK         0.0837 
    106 H106      -77.3960   28.2401  -74.6010 H         1 UNK         0.3020 
    107 H107      -75.6044   26.3535  -72.6034 H         1 UNK         0.1245 
    108 H108      -78.1762   25.9588  -74.1900 H         1 UNK         0.0781 
    109 H109      -77.9696   27.3096  -73.1206 H         1 UNK         0.0781 
    110 H110      -76.9615   25.9874  -70.0313 H         1 UNK         0.0836 
    111 H111      -78.6585   25.9207  -69.6290 H         1 UNK         0.0836 
    112 H112      -75.9598   24.7861  -75.0984 H         1 UNK         0.3022 
    113 H113      -74.7093   22.4508  -74.9119 H         1 UNK         0.0747 
    114 H114      -74.4793   21.2419  -72.7561 H         1 UNK         0.0793 
    115 H115      -76.2260   21.2315  -72.5442 H         1 UNK         0.0793 
    116 H116      -75.4859   20.3239  -73.8632 H         1 UNK         0.0793 
    117 H117      -77.5998   21.9774  -74.4838 H         1 UNK         0.3047 
    118 H118      -78.4928   23.5571  -77.5790 H         1 UNK         0.0822 
    119 H119      -79.7713   21.4476  -77.6824 H         1 UNK         0.0807 
    120 H120      -78.8036   20.7581  -76.3817 H         1 UNK         0.0807 
    121 H121      -78.0576   21.1495  -77.9212 H         1 UNK         0.0807 
    122 H122      -79.9550   24.2926  -76.1419 H         1 UNK         0.2946 
    123 H123      -82.0167   23.5034  -74.5912 H         1 UNK         0.1144 
    124 H124      -80.5644   23.3231  -71.8987 H         1 UNK         0.0793 
    125 H125      -81.7009   22.1562  -72.5564 H         1 UNK         0.0793 
    126 H126      -82.2590   23.7594  -72.1109 H         1 UNK         0.0793 
    127 H127      -80.1027   25.4186  -73.3227 H         1 UNK         0.2896 
@<TRIPOS>BOND
     1    1    2 1    
     2    1   67 1    
     3    1   68 1    
     4    1   69 1    
     5    2    3 2    
     6    2    4 am   BACKBONE|DICT|INTERRES
     7    4    5 1    
     8    4   70 1    
     9    5    6 1    
    10    5   65 1    
    11    5   71 1    
    12    6    7 1    
    13    6   72 1    
    14    6   73 1    
    15    7    8 1    
    16    8    9 1    
    17    8   74 1    
    18    8   75 1    
    19    9   10 ar   
    20    9   14 ar   
    21   10   11 ar   
    22   10   76 1    
    23   11   12 ar   
    24   11   48 1    
    25   12   13 ar   
    26   12   77 1    
    27   13   14 ar   
    28   13   15 1    
    29   14   78 1    
    30   15   16 1    
    31   15   79 1    
    32   15   80 1    
    33   16   17 1    
    34   17   18 1    
    35   17   81 1    
    36   17   82 1    
    37   18   19 1    
    38   18   22 1    
    39   18   83 1    
    40   19   20 am   BACKBONE|DICT|INTERRES
    41   19   21 2    
    42   20   84 1    
    43   20   85 1    
    44   22   23 am   BACKBONE|DICT|INTERRES
    45   22   86 1    
    46   23   24 2    
    47   23   25 1    
    48   25   26 1    
    49   25   27 1    
    50   25   87 1    
    51   26   88 1    
    52   26   89 1    
    53   26   90 1    
    54   27   28 am   BACKBONE|DICT|INTERRES
    55   27   91 1    
    56   28   29 2    
    57   28   30 1    
    58   30   31 1    
    59   30   32 1    
    60   30   92 1    
    61   31   93 1    
    62   31   94 1    
    63   31   95 1    
    64   32   33 am   BACKBONE|DICT|INTERRES
    65   32   96 1    
    66   33   34 2    
    67   33   35 1    
    68   35   36 1    
    69   35   37 1    
    70   35   97 1    
    71   36   98 1    
    72   36   99 1    
    73   36  100 1    
    74   37   38 am   BACKBONE|DICT|INTERRES
    75   37  101 1    
    76   38   39 2    
    77   38   40 1    
    78   40   41 1    
    79   40   42 1    
    80   40  102 1    
    81   41  103 1    
    82   41  104 1    
    83   41  105 1    
    84   42   43 am   BACKBONE|DICT|INTERRES
    85   42  106 1    
    86   43   44 2    
    87   43   45 1    
    88   45   46 1    
    89   45   49 1    
    90   45  107 1    
    91   46   47 1    
    92   46  108 1    
    93   46  109 1    
    94   47   48 1    
    95   48  110 1    
    96   48  111 1    
    97   49   50 am   BACKBONE|DICT|INTERRES
    98   49  112 1    
    99   50   51 2    
   100   50   52 1    
   101   52   53 1    
   102   52   54 1    
   103   52  113 1    
   104   53  114 1    
   105   53  115 1    
   106   53  116 1    
   107   54   55 am   BACKBONE|DICT|INTERRES
   108   54  117 1    
   109   55   56 2    
   110   55   57 1    
   111   57   58 1    
   112   57   59 1    
   113   57  118 1    
   114   58  119 1    
   115   58  120 1    
   116   58  121 1    
   117   59   60 am   BACKBONE|DICT|INTERRES
   118   59  122 1    
   119   60   61 2    
   120   60   62 1    
   121   62   63 1    
   122   62   64 1    
   123   62  123 1    
   124   63  124 1    
   125   63  125 1    
   126   63  126 1    
   127   64   65 am   BACKBONE|DICT|INTERRES
   128   64  127 1    
   129   65   66 2    
@<TRIPOS>SUBSTRUCTURE
     1 UNK         1 GROUP             0       ****    0 ROOT    
