@<TRIPOS>MOLECULE
3R135
127   129    1
SMALL
USER_CHARGES


@<TRIPOS>ATOM
      1 CA        -76.5971   28.0199  -74.2641 C.3       0 UNK        -0.1998 
      2 C         -76.7911   27.0776  -73.0960 C.2       0 UNK         0.4909 
      3 O         -75.9624   26.1928  -72.8724 O.2       0 UNK        -0.5240 
      4 N         -77.8673   27.2838  -72.3333 N.am      1 UNK        -0.4739 
      5 CA        -78.2800   26.4249  -71.2262 C.3       1 UNK         0.0864 
      6 C6        -79.2975   27.1340  -70.2966 C.3       11 UNK        -0.0881 
      7 S7        -80.7689   27.8118  -71.1480 S.3       11 UNK        -0.2682 
      8 C8        -80.5616   29.6083  -70.9212 C.3       11 UNK         0.0289 
      9 C9        -79.5060   30.1975  -71.8479 C.ar      11 UNK        -0.0687 
     10 C10       -79.7839   30.3597  -73.2089 C.ar      11 UNK        -0.0823 
     11 C11       -78.8386   30.9298  -74.0716 C.ar      11 UNK        -0.0830 
     12 C12       -77.6157   31.3604  -73.5468 C.ar      11 UNK        -0.1021 
     13 C13       -77.3289   31.2164  -72.1863 C.ar      11 UNK        -0.0753 
     14 C14       -78.2738   30.6242  -71.3423 C.ar      11 UNK        -0.0933 
     15 C15       -76.0162   31.7491  -71.6277 C.3       11 UNK         0.0166 
     16 S16       -74.6163   30.6414  -71.9764 S.3       11 UNK        -0.2615 
     17 C17       -74.9513   29.2877  -70.8030 C.3       11 UNK        -0.0865 
     18 CA        -73.8140   28.2359  -70.7434 C.3       10 UNK         0.0862 
     19 C         -74.1615   27.1266  -69.7116 C.2       10 UNK         0.5551 
     20 N         -74.6094   25.9514  -70.1405 N.am      10 UNK        -0.7319 
     21 O         -74.0179   27.3367  -68.5102 O.2       10 UNK        -0.5018 
     22 N         -73.4587   27.6953  -72.0674 N.am      10 UNK        -0.4509 
     23 C         -72.2618   27.1709  -72.3594 C.2       10 UNK         0.4899 
     24 O         -71.2972   27.1951  -71.5937 O.2       10 UNK        -0.4839 
     25 CA        -72.1064   26.4718  -73.7204 C.3       9 UNK         0.0222 
     26 CB        -72.3302   24.9608  -73.5548 C.3       9 UNK        -0.1966 
     27 N         -72.9949   26.9835  -74.7690 N.am      9 UNK        -0.4218 
     28 C         -72.8236   28.1545  -75.4018 C.2       9 UNK         0.5020 
     29 O         -71.9497   28.9689  -75.0988 O.2       9 UNK        -0.5274 
     30 CA        -73.7740   28.4505  -76.5840 C.3       8 UNK         0.0270 
     31 CB        -73.2516   29.5706  -77.5096 C.3       8 UNK        -0.1976 
     32 N         -74.1248   27.2510  -77.3625 N.am      8 UNK        -0.4313 
     33 C         -73.2833   26.4664  -78.0573 C.2       8 UNK         0.5041 
     34 O         -72.0647   26.6325  -78.1161 O.2       8 UNK        -0.5577 
     35 CA        -73.9114   25.2936  -78.8244 C.3       7 UNK         0.0284 
     36 CB        -74.0806   24.0808  -77.8973 C.3       7 UNK        -0.1958 
     37 N         -75.2073   25.6623  -79.3985 N.am      7 UNK        -0.4454 
     38 C         -75.3609   26.2557  -80.5921 C.2       7 UNK         0.5089 
     39 O         -74.4344   26.4729  -81.3736 O.2       7 UNK        -0.5125 
     40 CA        -76.7864   26.6920  -80.9840 C.3       6 UNK         0.0408 
     41 CB        -77.5129   25.5553  -81.7203 C.3       6 UNK        -0.1791 
     42 N         -77.5887   27.1163  -79.8348 N.am      6 UNK        -0.4762 
     43 C         -77.3535   28.2141  -79.1002 C.2       6 UNK         0.5007 
     44 O         -76.5139   29.0634  -79.3964 O.2       6 UNK        -0.5032 
     45 CA        -78.1511   28.3743  -77.7886 C.3       5 UNK         0.0783 
     46 C46       -79.1962   29.5107  -77.8965 C.3       11 UNK        -0.0857 
     47 S47       -80.0754   29.7695  -76.3163 S.3       11 UNK        -0.2512 
     48 C48       -79.1267   31.1339  -75.5589 C.3       11 UNK         0.0225 
     49 N         -78.7549   27.1238  -77.3052 N.am      5 UNK        -0.4615 
     50 C         -78.0859   26.0448  -76.8862 C.2       4 UNK         0.5053 
     51 O         -76.8583   25.9423  -76.9614 O.2       4 UNK        -0.5105 
     52 CA        -78.9577   24.9215  -76.3022 C.3       4 UNK         0.0263 
     53 CB        -79.6892   24.1380  -77.4118 C.3       4 UNK        -0.1981 
     54 N         -78.2214   24.0411  -75.3890 N.am      4 UNK        -0.4224 
     55 C         -77.3132   23.0947  -75.6777 C.2       3 UNK         0.4895 
     56 O         -77.0207   22.7366  -76.8188 O.2       3 UNK        -0.5091 
     57 CA        -76.5867   22.4272  -74.4926 C.3       3 UNK         0.0250 
     58 CB        -75.1234   22.8905  -74.4467 C.3       3 UNK        -0.1996 
     59 N         -77.2057   22.7060  -73.1940 N.am      3 UNK        -0.4254 
     60 C         -78.3069   22.1004  -72.7269 C.2       2 UNK         0.5004 
     61 O         -78.8818   21.1833  -73.3139 O.2       2 UNK        -0.5226 
     62 CA        -78.8800   22.6098  -71.3883 C.3       2 UNK         0.0269 
     63 CB        -78.4787   21.6680  -70.2411 C.3       2 UNK        -0.1926 
     64 N         -78.4950   23.9843  -71.0370 N.am      2 UNK        -0.4687 
     65 C         -78.7957   25.0721  -71.7606 C.2       1 UNK         0.5165 
     66 O         -79.4234   25.0262  -72.8222 O.2       1 UNK        -0.5079 
     67 H67       -76.1330   27.4795  -75.0828 H         1 UNK         0.0900 
     68 H68       -75.9537   28.8516  -73.9821 H         1 UNK         0.0900 
     69 H69       -77.5492   28.4177  -74.6128 H         1 UNK         0.0900 
     70 H70       -78.5191   28.0216  -72.5651 H         1 UNK         0.2959 
     71 H71       -77.3886   26.2192  -70.6300 H         1 UNK         0.1079 
     72 H72       -79.6384   26.4527  -69.5147 H         1 UNK         0.0837 
     73 H73       -78.7901   27.9423  -69.7681 H         1 UNK         0.0837 
     74 H74       -81.5175   30.0942  -71.1221 H         1 UNK         0.0685 
     75 H75       -80.3310   29.8222  -69.8764 H         1 UNK         0.0685 
     76 H76       -80.7450   30.0444  -73.5915 H         1 UNK         0.1434 
     77 H77       -76.8835   31.8231  -74.1947 H         1 UNK         0.1329 
     78 H78       -78.0594   30.5185  -70.2877 H         1 UNK         0.1335 
     79 H79       -75.8070   32.7235  -72.0716 H         1 UNK         0.0680 
     80 H80       -76.0912   31.9185  -70.5524 H         1 UNK         0.0680 
     81 H81       -75.9003   28.8226  -71.0647 H         1 UNK         0.1032 
     82 H82       -75.0988   29.7275  -69.8145 H         1 UNK         0.1032 
     83 H83       -72.9351   28.7527  -70.3523 H         1 UNK         0.0461 
     84 H84       -74.7833   25.8047  -71.1262 H         1 UNK         0.3453 
     85 H85       -74.8081   25.2249  -69.4720 H         1 UNK         0.3453 
     86 H86       -74.2163   27.5683  -72.7225 H         1 UNK         0.2984 
     87 H87       -71.0774   26.6229  -74.0540 H         1 UNK         0.0554 
     88 H88       -71.5802   24.5302  -72.8899 H         1 UNK         0.0847 
     89 H89       -72.2589   24.4332  -74.5062 H         1 UNK         0.0847 
     90 H90       -73.3045   24.7480  -73.1149 H         1 UNK         0.0847 
     91 H91       -73.7362   26.3718  -75.0767 H         1 UNK         0.3141 
     92 H92       -74.6983   28.8260  -76.1498 H         1 UNK         0.0743 
     93 H93       -73.1302   30.5060  -76.9620 H         1 UNK         0.0784 
     94 H94       -72.2829   29.3207  -77.9434 H         1 UNK         0.0784 
     95 H95       -73.9456   29.7637  -78.3278 H         1 UNK         0.0784 
     96 H96       -75.1005   26.9725  -77.3440 H         1 UNK         0.3213 
     97 H97       -73.2272   25.0099  -79.6274 H         1 UNK         0.0855 
     98 H98       -73.1204   23.7640  -77.4880 H         1 UNK         0.0814 
     99 H99       -74.5058   23.2292  -78.4285 H         1 UNK         0.0814 
    100 H100      -74.7349   24.3077  -77.0561 H         1 UNK         0.0814 
    101 H101      -76.0151   25.5488  -78.7960 H         1 UNK         0.3105 
    102 H102      -76.6991   27.5396  -81.6672 H         1 UNK         0.0547 
    103 H103      -76.9472   25.2356  -82.5967 H         1 UNK         0.0837 
    104 H104      -77.6476   24.6800  -81.0834 H         1 UNK         0.0837 
    105 H105      -78.4956   25.8721  -82.0700 H         1 UNK         0.0837 
    106 H106      -78.3091   26.4826  -79.5204 H         1 UNK         0.3020 
    107 H107      -77.4151   28.6808  -77.0433 H         1 UNK         0.1245 
    108 H108      -79.9389   29.2715  -78.6599 H         1 UNK         0.0781 
    109 H109      -78.7312   30.4464  -78.2131 H         1 UNK         0.0781 
    110 H110      -79.6829   32.0633  -75.6873 H         1 UNK         0.0836 
    111 H111      -78.1864   31.2618  -76.0970 H         1 UNK         0.0836 
    112 H112      -79.7604   27.1405  -77.2090 H         1 UNK         0.3022 
    113 H113      -79.7154   25.3982  -75.6778 H         1 UNK         0.0747 
    114 H114      -80.3897   24.7793  -77.9477 H         1 UNK         0.0793 
    115 H115      -78.9987   23.7316  -78.1515 H         1 UNK         0.0793 
    116 H116      -80.2640   23.3092  -76.9986 H         1 UNK         0.0793 
    117 H117      -78.3879   24.2410  -74.4083 H         1 UNK         0.3047 
    118 H118      -76.6003   21.3481  -74.6607 H         1 UNK         0.0822 
    119 H119      -74.5848   22.5650  -75.3372 H         1 UNK         0.0807 
    120 H120      -74.5968   22.4803  -73.5848 H         1 UNK         0.0807 
    121 H121      -75.0584   23.9780  -74.4031 H         1 UNK         0.0807 
    122 H122      -76.8001   23.4544  -72.6495 H         1 UNK         0.2946 
    123 H123      -79.9681   22.5884  -71.4847 H         1 UNK         0.1144 
    124 H124      -78.9606   21.9524  -69.3055 H         1 UNK         0.0793 
    125 H125      -77.4001   21.6664  -70.0786 H         1 UNK         0.0793 
    126 H126      -78.7769   20.6407  -70.4560 H         1 UNK         0.0793 
    127 H127      -77.9728   24.0955  -70.1793 H         1 UNK         0.2896 
@<TRIPOS>BOND
     1    1    2 1    
     2    1   67 1    
     3    1   68 1    
     4    1   69 1    
     5    2    3 2    
     6    2    4 am   BACKBONE|DICT|INTERRES
     7    4    5 1    
     8    4   70 1    
     9    5    6 1    
    10    5   65 1    
    11    5   71 1    
    12    6    7 1    
    13    6   72 1    
    14    6   73 1    
    15    7    8 1    
    16    8    9 1    
    17    8   74 1    
    18    8   75 1    
    19    9   10 ar   
    20    9   14 ar   
    21   10   11 ar   
    22   10   76 1    
    23   11   12 ar   
    24   11   48 1    
    25   12   13 ar   
    26   12   77 1    
    27   13   14 ar   
    28   13   15 1    
    29   14   78 1    
    30   15   16 1    
    31   15   79 1    
    32   15   80 1    
    33   16   17 1    
    34   17   18 1    
    35   17   81 1    
    36   17   82 1    
    37   18   19 1    
    38   18   22 1    
    39   18   83 1    
    40   19   20 am   BACKBONE|DICT|INTERRES
    41   19   21 2    
    42   20   84 1    
    43   20   85 1    
    44   22   23 am   BACKBONE|DICT|INTERRES
    45   22   86 1    
    46   23   24 2    
    47   23   25 1    
    48   25   26 1    
    49   25   27 1    
    50   25   87 1    
    51   26   88 1    
    52   26   89 1    
    53   26   90 1    
    54   27   28 am   BACKBONE|DICT|INTERRES
    55   27   91 1    
    56   28   29 2    
    57   28   30 1    
    58   30   31 1    
    59   30   32 1    
    60   30   92 1    
    61   31   93 1    
    62   31   94 1    
    63   31   95 1    
    64   32   33 am   BACKBONE|DICT|INTERRES
    65   32   96 1    
    66   33   34 2    
    67   33   35 1    
    68   35   36 1    
    69   35   37 1    
    70   35   97 1    
    71   36   98 1    
    72   36   99 1    
    73   36  100 1    
    74   37   38 am   BACKBONE|DICT|INTERRES
    75   37  101 1    
    76   38   39 2    
    77   38   40 1    
    78   40   41 1    
    79   40   42 1    
    80   40  102 1    
    81   41  103 1    
    82   41  104 1    
    83   41  105 1    
    84   42   43 am   BACKBONE|DICT|INTERRES
    85   42  106 1    
    86   43   44 2    
    87   43   45 1    
    88   45   46 1    
    89   45   49 1    
    90   45  107 1    
    91   46   47 1    
    92   46  108 1    
    93   46  109 1    
    94   47   48 1    
    95   48  110 1    
    96   48  111 1    
    97   49   50 am   BACKBONE|DICT|INTERRES
    98   49  112 1    
    99   50   51 2    
   100   50   52 1    
   101   52   53 1    
   102   52   54 1    
   103   52  113 1    
   104   53  114 1    
   105   53  115 1    
   106   53  116 1    
   107   54   55 am   BACKBONE|DICT|INTERRES
   108   54  117 1    
   109   55   56 2    
   110   55   57 1    
   111   57   58 1    
   112   57   59 1    
   113   57  118 1    
   114   58  119 1    
   115   58  120 1    
   116   58  121 1    
   117   59   60 am   BACKBONE|DICT|INTERRES
   118   59  122 1    
   119   60   61 2    
   120   60   62 1    
   121   62   63 1    
   122   62   64 1    
   123   62  123 1    
   124   63  124 1    
   125   63  125 1    
   126   63  126 1    
   127   64   65 am   BACKBONE|DICT|INTERRES
   128   64  127 1    
   129   65   66 2    
@<TRIPOS>SUBSTRUCTURE
     1 UNK         1 GROUP             0       ****    0 ROOT    
