@<TRIPOS>MOLECULE
3R135
127   129    1
SMALL
USER_CHARGES


@<TRIPOS>ATOM
      1 CA        -83.4627   27.5679  -68.9059 C.3       0 UNK        -0.1998 
      2 C         -82.7720   27.5828  -70.2612 C.2       0 UNK         0.4909 
      3 O         -83.1693   28.3464  -71.1416 O.2       0 UNK        -0.5240 
      4 N         -81.7392   26.7472  -70.4327 N.am      1 UNK        -0.4739 
      5 CA        -80.9589   26.6180  -71.6698 C.3       1 UNK         0.0864 
      6 C6        -79.6916   25.7524  -71.4569 C.3       11 UNK        -0.0881 
      7 S7        -78.4342   26.5819  -70.4327 S.3       11 UNK        -0.2682 
      8 C8        -77.1394   26.9253  -71.6684 C.3       11 UNK         0.0289 
      9 C9        -77.4383   28.1829  -72.4721 C.ar      11 UNK        -0.0687 
     10 C10       -78.2867   28.1387  -73.5839 C.ar      11 UNK        -0.0823 
     11 C11       -78.5650   29.2995  -74.3146 C.ar      11 UNK        -0.0830 
     12 C12       -77.9626   30.5037  -73.9383 C.ar      11 UNK        -0.1021 
     13 C13       -77.1112   30.5614  -72.8316 C.ar      11 UNK        -0.0753 
     14 C14       -76.8610   29.3993  -72.0970 C.ar      11 UNK        -0.0933 
     15 C15       -76.4938   31.8892  -72.4170 C.3       11 UNK         0.0166 
     16 S16       -74.8739   32.1564  -73.2017 S.3       11 UNK        -0.2615 
     17 C17       -73.7649   31.3526  -71.9963 C.3       11 UNK        -0.0865 
     18 CA        -72.3223   31.1725  -72.5325 C.3       10 UNK         0.0862 
     19 C         -71.3687   30.7027  -71.3924 C.2       10 UNK         0.5551 
     20 N         -70.7875   29.5098  -71.4444 N.am      10 UNK        -0.7319 
     21 O         -71.1503   31.4447  -70.4378 O.2       10 UNK        -0.5018 
     22 N         -72.2983   30.3326  -73.7401 N.am      10 UNK        -0.4509 
     23 C         -71.2738   30.2520  -74.5975 C.2       10 UNK         0.4899 
     24 O         -70.2698   30.9633  -74.5285 O.2       10 UNK        -0.4839 
     25 CA        -71.3906   29.1920  -75.7129 C.3       9 UNK         0.0222 
     26 CB        -70.0170   28.7797  -76.2815 C.3       9 UNK        -0.1966 
     27 N         -72.1546   27.9950  -75.3338 N.am      9 UNK        -0.4218 
     28 C         -71.9288   27.1708  -74.2975 C.2       9 UNK         0.5020 
     29 O         -71.0810   27.3687  -73.4260 O.2       9 UNK        -0.5274 
     30 CA        -72.7936   25.9001  -74.2305 C.3       8 UNK         0.0270 
     31 CB        -74.1973   26.2196  -73.6896 C.3       8 UNK        -0.1976 
     32 N         -72.8983   25.2270  -75.5283 N.am      8 UNK        -0.4313 
     33 C         -71.8667   24.6767  -76.1884 C.2       8 UNK         0.5041 
     34 O         -70.7248   24.5910  -75.7352 O.2       8 UNK        -0.5577 
     35 CA        -72.1503   24.1476  -77.6021 C.3       7 UNK         0.0284 
     36 CB        -72.7025   22.7141  -77.5498 C.3       7 UNK        -0.1958 
     37 N         -73.0830   25.0220  -78.3163 N.am      7 UNK        -0.4454 
     38 C         -72.7194   26.1488  -78.9463 C.2       7 UNK         0.5089 
     39 O         -71.5513   26.5176  -79.0690 O.2       7 UNK        -0.5125 
     40 CA        -73.8414   27.0210  -79.5400 C.3       6 UNK         0.0408 
     41 CB        -74.0581   26.6770  -81.0220 C.3       6 UNK        -0.1791 
     42 N         -75.1159   26.9067  -78.8262 N.am      6 UNK        -0.4762 
     43 C         -75.3383   27.3483  -77.5792 C.2       6 UNK         0.5007 
     44 O         -74.4906   27.9228  -76.8973 O.2       6 UNK        -0.5032 
     45 CA        -76.7247   27.0467  -76.9753 C.3       5 UNK         0.0783 
     46 C46       -77.7159   28.1837  -77.3230 C.3       11 UNK        -0.0857 
     47 S47       -79.3719   27.8901  -76.6184 S.3       11 UNK        -0.2512 
     48 C48       -79.5639   29.2901  -75.4688 C.3       11 UNK         0.0225 
     49 N         -77.2396   25.7255  -77.3645 N.am      5 UNK        -0.4615 
     50 C         -76.6287   24.5531  -77.1603 C.2       4 UNK         0.5053 
     51 O         -75.5237   24.4453  -76.6245 O.2       4 UNK        -0.5105 
     52 CA        -77.3773   23.2989  -77.6449 C.3       4 UNK         0.0263 
     53 CB        -76.4089   22.1935  -78.1019 C.3       4 UNK        -0.1981 
     54 N         -78.2492   22.7671  -76.5977 N.am      4 UNK        -0.4224 
     55 C         -79.4015   23.3232  -76.2029 C.2       3 UNK         0.4895 
     56 O         -79.8918   24.3233  -76.7329 O.2       3 UNK        -0.5091 
     57 CA        -80.1236   22.6469  -75.0266 C.3       3 UNK         0.0250 
     58 CB        -79.1846   22.4227  -73.8212 C.3       3 UNK        -0.1996 
     59 N         -81.2518   23.4806  -74.6206 N.am      3 UNK        -0.4254 
     60 C         -82.3402   23.0821  -73.9544 C.2       2 UNK         0.5004 
     61 O         -82.5551   21.9113  -73.6346 O.2       2 UNK        -0.5226 
     62 CA        -83.3127   24.1984  -73.5183 C.3       2 UNK         0.0269 
     63 CB        -84.6193   23.6501  -72.9148 C.3       2 UNK        -0.1926 
     64 N         -82.6631   25.0684  -72.5333 N.am      2 UNK        -0.4687 
     65 C         -81.7739   26.0253  -72.8348 C.2       1 UNK         0.5165 
     66 O         -81.5377   26.3909  -73.9863 O.2       1 UNK        -0.5079 
     67 H67       -83.4105   28.5551  -68.4475 H         1 UNK         0.0900 
     68 H68       -83.0054   26.8526  -68.2225 H         1 UNK         0.0900 
     69 H69       -84.5128   27.3013  -69.0230 H         1 UNK         0.0900 
     70 H70       -81.4387   26.1653  -69.6634 H         1 UNK         0.2959 
     71 H71       -80.6540   27.6207  -71.9783 H         1 UNK         0.1079 
     72 H72       -79.9508   24.8054  -70.9794 H         1 UNK         0.0837 
     73 H73       -79.2381   25.4758  -72.4099 H         1 UNK         0.0837 
     74 H74       -77.0102   26.0704  -72.3335 H         1 UNK         0.0685 
     75 H75       -76.1891   27.0385  -71.1444 H         1 UNK         0.0685 
     76 H76       -78.7498   27.2062  -73.8737 H         1 UNK         0.1434 
     77 H77       -78.1724   31.4075  -74.4942 H         1 UNK         0.1329 
     78 H78       -76.2214   29.4404  -71.2268 H         1 UNK         0.1335 
     79 H79       -76.3986   31.9451  -71.3314 H         1 UNK         0.0680 
     80 H80       -77.1564   32.7078  -72.7023 H         1 UNK         0.0680 
     81 H81       -74.1759   30.3843  -71.7103 H         1 UNK         0.1032 
     82 H82       -73.7659   31.9644  -71.0917 H         1 UNK         0.1032 
     83 H83       -71.9611   32.1604  -72.8256 H         1 UNK         0.0461 
     84 H84       -70.1728   29.2317  -70.6966 H         1 UNK         0.3453 
     85 H85       -70.9460   28.8772  -72.2235 H         1 UNK         0.3453 
     86 H86       -73.0908   29.7240  -73.8779 H         1 UNK         0.2984 
     87 H87       -71.9541   29.6635  -76.5192 H         1 UNK         0.0554 
     88 H88       -70.1243   28.0515  -77.0858 H         1 UNK         0.0847 
     89 H89       -69.3806   28.3382  -75.5137 H         1 UNK         0.0847 
     90 H90       -69.4856   29.6383  -76.6935 H         1 UNK         0.0847 
     91 H91       -72.9438   27.7853  -75.9441 H         1 UNK         0.3141 
     92 H92       -72.3127   25.2066  -73.5376 H         1 UNK         0.0743 
     93 H93       -74.7287   26.9294  -74.3233 H         1 UNK         0.0784 
     94 H94       -74.8068   25.3190  -73.6115 H         1 UNK         0.0784 
     95 H95       -74.1360   26.6585  -72.6930 H         1 UNK         0.0784 
     96 H96       -73.8213   25.1710  -75.9490 H         1 UNK         0.3213 
     97 H97       -71.2039   24.1203  -78.1474 H         1 UNK         0.0855 
     98 H98       -73.6036   22.6471  -76.9412 H         1 UNK         0.0814 
     99 H99       -71.9693   22.0352  -77.1126 H         1 UNK         0.0814 
    100 H100      -72.9375   22.3395  -78.5461 H         1 UNK         0.0814 
    101 H101      -74.0681   24.8187  -78.2103 H         1 UNK         0.3105 
    102 H102      -73.5148   28.0614  -79.4769 H         1 UNK         0.0547 
    103 H103      -73.1298   26.7813  -81.5858 H         1 UNK         0.0837 
    104 H104      -74.4046   25.6513  -81.1537 H         1 UNK         0.0837 
    105 H105      -74.7893   27.3418  -81.4821 H         1 UNK         0.0837 
    106 H106      -75.8713   26.4416  -79.3096 H         1 UNK         0.3020 
    107 H107      -76.5994   27.0295  -75.8908 H         1 UNK         0.1245 
    108 H108      -77.8269   28.2823  -78.4046 H         1 UNK         0.0781 
    109 H109      -77.3360   29.1439  -76.9677 H         1 UNK         0.0781 
    110 H110      -80.5699   29.2517  -75.0487 H         1 UNK         0.0836 
    111 H111      -79.5060   30.2175  -76.0409 H         1 UNK         0.0836 
    112 H112      -78.1863   25.7137  -77.7222 H         1 UNK         0.3022 
    113 H113      -77.9897   23.5779  -78.5053 H         1 UNK         0.0747 
    114 H114      -76.9470   21.3593  -78.5523 H         1 UNK         0.0793 
    115 H115      -75.7101   22.5683  -78.8510 H         1 UNK         0.0793 
    116 H116      -75.8210   21.8001  -77.2721 H         1 UNK         0.0793 
    117 H117      -77.9057   21.9595  -76.0986 H         1 UNK         0.3047 
    118 H118      -80.5027   21.6855  -75.3794 H         1 UNK         0.0822 
    119 H119      -78.3953   21.7080  -74.0551 H         1 UNK         0.0807 
    120 H120      -79.7243   22.0219  -72.9629 H         1 UNK         0.0807 
    121 H121      -78.7044   23.3501  -73.5077 H         1 UNK         0.0807 
    122 H122      -81.1686   24.4592  -74.8819 H         1 UNK         0.2946 
    123 H123      -83.5702   24.7799  -74.4069 H         1 UNK         0.1144 
    124 H124      -85.1351   23.0028  -73.6254 H         1 UNK         0.0793 
    125 H125      -85.3050   24.4574  -72.6568 H         1 UNK         0.0793 
    126 H126      -84.4365   23.0646  -72.0128 H         1 UNK         0.0793 
    127 H127      -82.7818   24.8194  -71.5618 H         1 UNK         0.2896 
@<TRIPOS>BOND
     1    1    2 1    
     2    1   67 1    
     3    1   68 1    
     4    1   69 1    
     5    2    3 2    
     6    2    4 am   BACKBONE|DICT|INTERRES
     7    4    5 1    
     8    4   70 1    
     9    5    6 1    
    10    5   65 1    
    11    5   71 1    
    12    6    7 1    
    13    6   72 1    
    14    6   73 1    
    15    7    8 1    
    16    8    9 1    
    17    8   74 1    
    18    8   75 1    
    19    9   10 ar   
    20    9   14 ar   
    21   10   11 ar   
    22   10   76 1    
    23   11   12 ar   
    24   11   48 1    
    25   12   13 ar   
    26   12   77 1    
    27   13   14 ar   
    28   13   15 1    
    29   14   78 1    
    30   15   16 1    
    31   15   79 1    
    32   15   80 1    
    33   16   17 1    
    34   17   18 1    
    35   17   81 1    
    36   17   82 1    
    37   18   19 1    
    38   18   22 1    
    39   18   83 1    
    40   19   20 am   BACKBONE|DICT|INTERRES
    41   19   21 2    
    42   20   84 1    
    43   20   85 1    
    44   22   23 am   BACKBONE|DICT|INTERRES
    45   22   86 1    
    46   23   24 2    
    47   23   25 1    
    48   25   26 1    
    49   25   27 1    
    50   25   87 1    
    51   26   88 1    
    52   26   89 1    
    53   26   90 1    
    54   27   28 am   BACKBONE|DICT|INTERRES
    55   27   91 1    
    56   28   29 2    
    57   28   30 1    
    58   30   31 1    
    59   30   32 1    
    60   30   92 1    
    61   31   93 1    
    62   31   94 1    
    63   31   95 1    
    64   32   33 am   BACKBONE|DICT|INTERRES
    65   32   96 1    
    66   33   34 2    
    67   33   35 1    
    68   35   36 1    
    69   35   37 1    
    70   35   97 1    
    71   36   98 1    
    72   36   99 1    
    73   36  100 1    
    74   37   38 am   BACKBONE|DICT|INTERRES
    75   37  101 1    
    76   38   39 2    
    77   38   40 1    
    78   40   41 1    
    79   40   42 1    
    80   40  102 1    
    81   41  103 1    
    82   41  104 1    
    83   41  105 1    
    84   42   43 am   BACKBONE|DICT|INTERRES
    85   42  106 1    
    86   43   44 2    
    87   43   45 1    
    88   45   46 1    
    89   45   49 1    
    90   45  107 1    
    91   46   47 1    
    92   46  108 1    
    93   46  109 1    
    94   47   48 1    
    95   48  110 1    
    96   48  111 1    
    97   49   50 am   BACKBONE|DICT|INTERRES
    98   49  112 1    
    99   50   51 2    
   100   50   52 1    
   101   52   53 1    
   102   52   54 1    
   103   52  113 1    
   104   53  114 1    
   105   53  115 1    
   106   53  116 1    
   107   54   55 am   BACKBONE|DICT|INTERRES
   108   54  117 1    
   109   55   56 2    
   110   55   57 1    
   111   57   58 1    
   112   57   59 1    
   113   57  118 1    
   114   58  119 1    
   115   58  120 1    
   116   58  121 1    
   117   59   60 am   BACKBONE|DICT|INTERRES
   118   59  122 1    
   119   60   61 2    
   120   60   62 1    
   121   62   63 1    
   122   62   64 1    
   123   62  123 1    
   124   63  124 1    
   125   63  125 1    
   126   63  126 1    
   127   64   65 am   BACKBONE|DICT|INTERRES
   128   64  127 1    
   129   65   66 2    
@<TRIPOS>SUBSTRUCTURE
     1 UNK         1 GROUP             0       ****    0 ROOT    
