@<TRIPOS>MOLECULE
3R135
127   129    1
SMALL
USER_CHARGES


@<TRIPOS>ATOM
      1 CA        -81.5142   31.1507  -79.2654 C.3       0 UNK        -0.1998 
      2 C         -80.7209   30.0810  -78.5296 C.2       0 UNK         0.4909 
      3 O         -80.4634   29.0167  -79.0918 O.2       0 UNK        -0.5240 
      4 N         -80.3267   30.3596  -77.2799 N.am      1 UNK        -0.4739 
      5 CA        -79.6069   29.4354  -76.3965 C.3       1 UNK         0.0864 
      6 C6        -79.0138   30.1973  -75.1867 C.3       11 UNK        -0.0881 
      7 S7        -77.7265   29.2631  -74.2903 S.3       11 UNK        -0.2682 
      8 C8        -78.5781   28.9999  -72.7057 C.3       11 UNK         0.0289 
      9 C9        -77.6662   28.3576  -71.6737 C.ar      11 UNK        -0.0687 
     10 C10       -77.4886   26.9725  -71.6606 C.ar      11 UNK        -0.0823 
     11 C11       -76.6888   26.3692  -70.6862 C.ar      11 UNK        -0.0830 
     12 C12       -76.0712   27.1616  -69.7141 C.ar      11 UNK        -0.1021 
     13 C13       -76.2210   28.5520  -69.7305 C.ar      11 UNK        -0.0753 
     14 C14       -77.0215   29.1436  -70.7136 C.ar      11 UNK        -0.0933 
     15 C15       -75.5259   29.4213  -68.6880 C.3       11 UNK         0.0166 
     16 S16       -73.7171   29.1730  -68.6082 S.3       11 UNK        -0.2615 
     17 C17       -73.2107   29.3558  -70.3529 C.3       11 UNK        -0.0865 
     18 CA        -73.1826   30.8345  -70.8481 C.3       10 UNK         0.0862 
     19 C         -71.8024   31.5335  -70.6459 C.2       10 UNK         0.5551 
     20 N         -71.3740   32.4137  -71.5428 N.am      10 UNK        -0.7319 
     21 O         -71.1205   31.3016  -69.6507 O.2       10 UNK        -0.5018 
     22 N         -73.7613   30.9754  -72.1967 N.am      10 UNK        -0.4509 
     23 C         -73.3219   30.3610  -73.3026 C.2       10 UNK         0.4899 
     24 O         -72.3402   29.6163  -73.3290 O.2       10 UNK        -0.4839 
     25 CA        -74.1500   30.6221  -74.5725 C.3       9 UNK         0.0222 
     26 CB        -73.8859   32.0268  -75.1542 C.3       9 UNK        -0.1966 
     27 N         -73.9955   29.5603  -75.5769 N.am      9 UNK        -0.4218 
     28 C         -72.9560   29.3125  -76.3900 C.2       9 UNK         0.5020 
     29 O         -71.9652   30.0377  -76.4959 O.2       9 UNK        -0.5274 
     30 CA        -73.0139   28.0248  -77.2363 C.3       8 UNK         0.0270 
     31 CB        -71.9564   27.0182  -76.7521 C.3       8 UNK        -0.1976 
     32 N         -74.3256   27.3654  -77.2539 N.am      8 UNK        -0.4313 
     33 C         -75.3841   27.7969  -77.9575 C.2       8 UNK         0.5041 
     34 O         -75.3709   28.8343  -78.6220 O.2       8 UNK        -0.5577 
     35 CA        -76.6736   26.9466  -77.8999 C.3       7 UNK         0.0284 
     36 CB        -77.5854   27.1525  -79.1266 C.3       7 UNK        -0.1958 
     37 N         -76.4451   25.5177  -77.6623 N.am      7 UNK        -0.4454 
     38 C         -75.6954   24.6775  -78.3921 C.2       7 UNK         0.5089 
     39 O         -75.1735   24.9823  -79.4657 O.2       7 UNK        -0.5125 
     40 CA        -75.4612   23.2682  -77.8033 C.3       6 UNK         0.0408 
     41 CB        -74.1229   22.6614  -78.2726 C.3       6 UNK        -0.1791 
     42 N         -75.5543   23.1891  -76.3362 N.am      6 UNK        -0.4762 
     43 C         -74.8817   23.9218  -75.4298 C.2       6 UNK         0.5007 
     44 O         -74.1151   24.8343  -75.7401 O.2       6 UNK        -0.5032 
     45 CA        -75.1261   23.6052  -73.9391 C.3       5 UNK         0.0783 
     46 C46       -74.8881   24.8353  -73.0243 C.3       11 UNK        -0.0857 
     47 S47       -74.8336   24.3878  -71.2555 S.3       11 UNK        -0.2512 
     48 C48       -76.4945   24.8610  -70.6804 C.3       11 UNK         0.0225 
     49 N         -76.4673   23.0360  -73.7701 N.am      5 UNK        -0.4615 
     50 C         -76.7326   21.8460  -73.2154 C.2       4 UNK         0.5053 
     51 O         -75.8822   21.1231  -72.6961 O.2       4 UNK        -0.5105 
     52 CA        -78.1926   21.3555  -73.2744 C.3       4 UNK         0.0263 
     53 CB        -78.9348   21.7196  -71.9782 C.3       4 UNK        -0.1981 
     54 N         -78.9513   21.8655  -74.4217 N.am      4 UNK        -0.4224 
     55 C         -78.6311   21.6853  -75.7119 C.2       3 UNK         0.4895 
     56 O         -77.6629   21.0269  -76.0915 O.2       3 UNK        -0.5091 
     57 CA        -79.4985   22.4031  -76.7604 C.3       3 UNK         0.0250 
     58 CB        -80.5190   21.4279  -77.3686 C.3       3 UNK        -0.1996 
     59 N         -80.2011   23.5906  -76.2600 N.am      3 UNK        -0.4254 
     60 C         -79.6122   24.6997  -75.7932 C.2       2 UNK         0.5004 
     61 O         -78.3906   24.8321  -75.6548 O.2       2 UNK        -0.5226 
     62 CA        -80.5482   25.8384  -75.3807 C.3       2 UNK         0.0269 
     63 CB        -80.8932   25.7539  -73.8835 C.3       2 UNK        -0.1926 
     64 N         -79.8861   27.1024  -75.6814 N.am      2 UNK        -0.4687 
     65 C         -80.5067   28.2526  -75.9660 C.2       1 UNK         0.5165 
     66 O         -81.7296   28.4023  -75.8898 O.2       1 UNK        -0.5079 
     67 H67       -81.6571   32.0439  -78.6575 H         1 UNK         0.0900 
     68 H68       -82.4962   30.7662  -79.5395 H         1 UNK         0.0900 
     69 H69       -80.9948   31.4413  -80.1782 H         1 UNK         0.0900 
     70 H70       -80.5978   31.2395  -76.8650 H         1 UNK         0.2959 
     71 H71       -78.7806   29.0320  -76.9833 H         1 UNK         0.1079 
     72 H72       -78.5375   31.1167  -75.5318 H         1 UNK         0.0837 
     73 H73       -79.8050   30.5165  -74.5054 H         1 UNK         0.0837 
     74 H74       -78.9469   29.9555  -72.3295 H         1 UNK         0.0685 
     75 H75       -79.4564   28.3730  -72.8664 H         1 UNK         0.0685 
     76 H76       -77.9697   26.3654  -72.4137 H         1 UNK         0.1434 
     77 H77       -75.4522   26.6976  -68.9580 H         1 UNK         0.1329 
     78 H78       -77.1516   30.2170  -70.7280 H         1 UNK         0.1335 
     79 H79       -75.7222   30.4780  -68.8751 H         1 UNK         0.0680 
     80 H80       -75.9518   29.2021  -67.7081 H         1 UNK         0.0680 
     81 H81       -73.8848   28.7528  -70.9618 H         1 UNK         0.1032 
     82 H82       -72.2354   28.8833  -70.4843 H         1 UNK         0.1032 
     83 H83       -73.8634   31.4099  -70.2207 H         1 UNK         0.0461 
     84 H84       -71.9249   32.6160  -72.3612 H         1 UNK         0.3453 
     85 H85       -70.4864   32.8704  -71.4033 H         1 UNK         0.3453 
     86 H86       -74.5642   31.5845  -72.2640 H         1 UNK         0.2984 
     87 H87       -75.1979   30.5885  -74.2775 H         1 UNK         0.0554 
     88 H88       -74.4374   32.1825  -76.0814 H         1 UNK         0.0847 
     89 H89       -72.8283   32.1941  -75.3597 H         1 UNK         0.0847 
     90 H90       -74.2018   32.8041  -74.4578 H         1 UNK         0.0847 
     91 H91       -74.7329   28.8709  -75.5776 H         1 UNK         0.3141 
     92 H92       -72.7645   28.3047  -78.2621 H         1 UNK         0.0743 
     93 H93       -72.1271   26.7249  -75.7154 H         1 UNK         0.0784 
     94 H94       -71.9581   26.1141  -77.3615 H         1 UNK         0.0784 
     95 H95       -70.9542   27.4453  -76.8080 H         1 UNK         0.0784 
     96 H96       -74.3928   26.4869  -76.7442 H         1 UNK         0.3213 
     97 H97       -77.2108   27.3036  -77.0225 H         1 UNK         0.0855 
     98 H98       -77.8407   28.2046  -79.2573 H         1 UNK         0.0814 
     99 H99       -78.5231   26.6070  -79.0197 H         1 UNK         0.0814 
    100 H100      -77.1052   26.8210  -80.0475 H         1 UNK         0.0814 
    101 H101      -76.8782   25.1456  -76.8204 H         1 UNK         0.3105 
    102 H102      -76.2647   22.6417  -78.1926 H         1 UNK         0.0547 
    103 H103      -74.0846   22.5816  -79.3597 H         1 UNK         0.0837 
    104 H104      -73.2741   23.2711  -77.9605 H         1 UNK         0.0837 
    105 H105      -73.9802   21.6575  -77.8729 H         1 UNK         0.0837 
    106 H106      -76.1726   22.4616  -75.9917 H         1 UNK         0.3020 
    107 H107      -74.3701   22.8569  -73.6903 H         1 UNK         0.1245 
    108 H108      -75.6402   25.6028  -73.2072 H         1 UNK         0.0781 
    109 H109      -73.9269   25.3030  -73.2455 H         1 UNK         0.0781 
    110 H110      -76.6379   24.4830  -69.6672 H         1 UNK         0.0836 
    111 H111      -77.2462   24.3687  -71.2976 H         1 UNK         0.0836 
    112 H112      -77.2227   23.5592  -74.1974 H         1 UNK         0.3022 
    113 H113      -78.1634   20.2672  -73.3593 H         1 UNK         0.0747 
    114 H114      -79.9237   21.2619  -71.9461 H         1 UNK         0.0793 
    115 H115      -78.3889   21.3669  -71.1018 H         1 UNK         0.0793 
    116 H116      -79.0609   22.7976  -71.8727 H         1 UNK         0.0793 
    117 H117      -79.7687   22.4194  -74.2129 H         1 UNK         0.3047 
    118 H118      -78.8276   22.7340  -77.5562 H         1 UNK         0.0822 
    119 H119      -81.0720   21.8899  -78.1867 H         1 UNK         0.0807 
    120 H120      -81.2402   21.0823  -76.6269 H         1 UNK         0.0807 
    121 H121      -80.0223   20.5457  -77.7755 H         1 UNK         0.0807 
    122 H122      -81.2095   23.5665  -76.3194 H         1 UNK         0.2946 
    123 H123      -81.4661   25.7693  -75.9697 H         1 UNK         0.1144 
    124 H124      -81.4219   24.8277  -73.6553 H         1 UNK         0.0793 
    125 H125      -81.5390   26.5768  -73.5768 H         1 UNK         0.0793 
    126 H126      -80.0003   25.7805  -73.2607 H         1 UNK         0.0793 
    127 H127      -78.8782   27.0391  -75.7343 H         1 UNK         0.2896 
@<TRIPOS>BOND
     1    1    2 1    
     2    1   67 1    
     3    1   68 1    
     4    1   69 1    
     5    2    3 2    
     6    2    4 am   BACKBONE|DICT|INTERRES
     7    4    5 1    
     8    4   70 1    
     9    5    6 1    
    10    5   65 1    
    11    5   71 1    
    12    6    7 1    
    13    6   72 1    
    14    6   73 1    
    15    7    8 1    
    16    8    9 1    
    17    8   74 1    
    18    8   75 1    
    19    9   10 ar   
    20    9   14 ar   
    21   10   11 ar   
    22   10   76 1    
    23   11   12 ar   
    24   11   48 1    
    25   12   13 ar   
    26   12   77 1    
    27   13   14 ar   
    28   13   15 1    
    29   14   78 1    
    30   15   16 1    
    31   15   79 1    
    32   15   80 1    
    33   16   17 1    
    34   17   18 1    
    35   17   81 1    
    36   17   82 1    
    37   18   19 1    
    38   18   22 1    
    39   18   83 1    
    40   19   20 am   BACKBONE|DICT|INTERRES
    41   19   21 2    
    42   20   84 1    
    43   20   85 1    
    44   22   23 am   BACKBONE|DICT|INTERRES
    45   22   86 1    
    46   23   24 2    
    47   23   25 1    
    48   25   26 1    
    49   25   27 1    
    50   25   87 1    
    51   26   88 1    
    52   26   89 1    
    53   26   90 1    
    54   27   28 am   BACKBONE|DICT|INTERRES
    55   27   91 1    
    56   28   29 2    
    57   28   30 1    
    58   30   31 1    
    59   30   32 1    
    60   30   92 1    
    61   31   93 1    
    62   31   94 1    
    63   31   95 1    
    64   32   33 am   BACKBONE|DICT|INTERRES
    65   32   96 1    
    66   33   34 2    
    67   33   35 1    
    68   35   36 1    
    69   35   37 1    
    70   35   97 1    
    71   36   98 1    
    72   36   99 1    
    73   36  100 1    
    74   37   38 am   BACKBONE|DICT|INTERRES
    75   37  101 1    
    76   38   39 2    
    77   38   40 1    
    78   40   41 1    
    79   40   42 1    
    80   40  102 1    
    81   41  103 1    
    82   41  104 1    
    83   41  105 1    
    84   42   43 am   BACKBONE|DICT|INTERRES
    85   42  106 1    
    86   43   44 2    
    87   43   45 1    
    88   45   46 1    
    89   45   49 1    
    90   45  107 1    
    91   46   47 1    
    92   46  108 1    
    93   46  109 1    
    94   47   48 1    
    95   48  110 1    
    96   48  111 1    
    97   49   50 am   BACKBONE|DICT|INTERRES
    98   49  112 1    
    99   50   51 2    
   100   50   52 1    
   101   52   53 1    
   102   52   54 1    
   103   52  113 1    
   104   53  114 1    
   105   53  115 1    
   106   53  116 1    
   107   54   55 am   BACKBONE|DICT|INTERRES
   108   54  117 1    
   109   55   56 2    
   110   55   57 1    
   111   57   58 1    
   112   57   59 1    
   113   57  118 1    
   114   58  119 1    
   115   58  120 1    
   116   58  121 1    
   117   59   60 am   BACKBONE|DICT|INTERRES
   118   59  122 1    
   119   60   61 2    
   120   60   62 1    
   121   62   63 1    
   122   62   64 1    
   123   62  123 1    
   124   63  124 1    
   125   63  125 1    
   126   63  126 1    
   127   64   65 am   BACKBONE|DICT|INTERRES
   128   64  127 1    
   129   65   66 2    
@<TRIPOS>SUBSTRUCTURE
     1 UNK         1 GROUP             0       ****    0 ROOT    
