@<TRIPOS>MOLECULE
3R135
127   129    1
SMALL
USER_CHARGES


@<TRIPOS>ATOM
      1 CA        -79.2737   21.9303  -71.9482 C.3       0 UNK        -0.1998 
      2 C         -80.1793   23.0911  -72.3291 C.2       0 UNK         0.4909 
      3 O         -80.9311   22.9881  -73.2990 O.2       0 UNK        -0.5240 
      4 N         -80.1054   24.2027  -71.5845 N.am      1 UNK        -0.4739 
      5 CA        -80.8645   25.4337  -71.8306 C.3       1 UNK         0.0864 
      6 C6        -80.6588   26.4514  -70.6844 C.3       11 UNK        -0.0881 
      7 S7        -81.8575   27.8270  -70.7480 S.3       11 UNK        -0.2682 
      8 C8        -80.9022   29.1923  -70.0112 C.3       11 UNK         0.0289 
      9 C9        -79.7012   29.5920  -70.8584 C.ar      11 UNK        -0.0687 
     10 C10       -79.8858   30.2408  -72.0835 C.ar      11 UNK        -0.0823 
     11 C11       -78.7878   30.6212  -72.8630 C.ar      11 UNK        -0.0830 
     12 C12       -77.4958   30.3635  -72.3919 C.ar      11 UNK        -0.1021 
     13 C13       -77.2992   29.7000  -71.1784 C.ar      11 UNK        -0.0753 
     14 C14       -78.4041   29.3210  -70.4124 C.ar      11 UNK        -0.0933 
     15 C15       -75.8901   29.3786  -70.7130 C.3       11 UNK         0.0166 
     16 S16       -75.2651   27.9046  -71.5712 S.3       11 UNK        -0.2615 
     17 C17       -73.5187   27.9050  -71.0433 C.3       11 UNK        -0.0865 
     18 CA        -72.6303   28.9105  -71.8262 C.3       10 UNK         0.0862 
     19 C         -71.1450   28.8084  -71.3666 C.2       10 UNK         0.5551 
     20 N         -70.1950   28.4574  -72.2267 N.am      10 UNK        -0.7319 
     21 O         -70.8503   29.0567  -70.2001 O.2       10 UNK        -0.5018 
     22 N         -72.8317   28.8050  -73.2781 N.am      10 UNK        -0.4509 
     23 C         -72.4876   29.7339  -74.1785 C.2       10 UNK         0.4899 
     24 O         -72.0376   30.8421  -73.8835 O.2       10 UNK        -0.4839 
     25 CA        -72.6717   29.3413  -75.6583 C.3       9 UNK         0.0222 
     26 CB        -71.7834   30.1644  -76.6145 C.3       9 UNK        -0.1966 
     27 N         -72.5018   27.8990  -75.8959 N.am      9 UNK        -0.4218 
     28 C         -71.4101   27.1663  -75.6224 C.2       9 UNK         0.5020 
     29 O         -70.3644   27.6388  -75.1732 O.2       9 UNK        -0.5274 
     30 CA        -71.5007   25.6469  -75.8171 C.3       8 UNK         0.0270 
     31 CB        -71.6609   24.9555  -74.4508 C.3       8 UNK        -0.1976 
     32 N         -72.6130   25.2403  -76.6814 N.am      8 UNK        -0.4313 
     33 C         -72.4652   24.7399  -77.9140 C.2       8 UNK         0.5041 
     34 O         -71.3867   24.6807  -78.5070 O.2       8 UNK        -0.5577 
     35 CA        -73.7157   24.1551  -78.5863 C.3       7 UNK         0.0284 
     36 CB        -74.0377   22.7717  -77.9967 C.3       7 UNK        -0.1958 
     37 N         -74.8987   25.0145  -78.5015 N.am      7 UNK        -0.4454 
     38 C         -75.1038   26.0776  -79.2917 C.2       7 UNK         0.5089 
     39 O         -74.2659   26.5165  -80.0804 O.2       7 UNK        -0.5125 
     40 CA        -76.4909   26.7414  -79.2257 C.3       6 UNK         0.0408 
     41 CB        -77.5555   25.8542  -79.8915 C.3       6 UNK        -0.1791 
     42 N         -76.9058   27.0638  -77.8619 N.am      6 UNK        -0.4762 
     43 C         -76.3581   28.0323  -77.1147 C.2       6 UNK         0.5007 
     44 O         -75.4716   28.7830  -77.5196 O.2       6 UNK        -0.5032 
     45 CA        -76.8622   28.1562  -75.6600 C.3       5 UNK         0.0783 
     46 C46       -78.1873   28.9596  -75.5910 C.3       11 UNK        -0.0857 
     47 S47       -77.8913   30.7594  -75.5390 S.3       11 UNK        -0.2512 
     48 C48       -79.0185   31.3080  -74.2077 C.3       11 UNK         0.0225 
     49 N         -76.9823   26.8487  -75.0083 N.am      5 UNK        -0.4615 
     50 C         -75.9886   25.9616  -74.8611 C.2       4 UNK         0.5053 
     51 O         -74.8225   26.1738  -75.1932 O.2       4 UNK        -0.5105 
     52 CA        -76.3731   24.5760  -74.3211 C.3       4 UNK         0.0263 
     53 CB        -76.4215   24.5703  -72.7856 C.3       4 UNK        -0.1981 
     54 N         -77.6528   24.1215  -74.8711 N.am      4 UNK        -0.4224 
     55 C         -77.8318   23.7594  -76.1504 C.2       3 UNK         0.4895 
     56 O         -76.9239   23.7054  -76.9780 O.2       3 UNK        -0.5091 
     57 CA        -79.2696   23.4585  -76.6001 C.3       3 UNK         0.0250 
     58 CB        -79.6445   21.9997  -76.2972 C.3       3 UNK        -0.1996 
     59 N         -80.2404   24.3716  -75.9915 N.am      3 UNK        -0.4254 
     60 C         -80.3305   25.6730  -76.3101 C.2       2 UNK         0.5004 
     61 O         -79.6442   26.2070  -77.1809 O.2       2 UNK        -0.5226 
     62 CA        -81.3122   26.5405  -75.5006 C.3       2 UNK         0.0269 
     63 CB        -82.6810   26.5941  -76.1962 C.3       2 UNK        -0.1926 
     64 N         -81.4871   26.1023  -74.1127 N.am      2 UNK        -0.4687 
     65 C         -80.5004   26.0235  -73.2091 C.2       1 UNK         0.5165 
     66 O         -79.3328   26.3364  -73.4473 O.2       1 UNK        -0.5079 
     67 H67       -79.8707   21.0423  -71.7428 H         1 UNK         0.0900 
     68 H68       -78.5925   21.7009  -72.7671 H         1 UNK         0.0900 
     69 H69       -78.6781   22.1510  -71.0626 H         1 UNK         0.0900 
     70 H70       -79.4553   24.2377  -70.8125 H         1 UNK         0.2959 
     71 H71       -81.9197   25.1513  -71.8422 H         1 UNK         0.1079 
     72 H72       -80.7864   25.9584  -69.7194 H         1 UNK         0.0837 
     73 H73       -79.6359   26.8304  -70.6948 H         1 UNK         0.0837 
     74 H74       -81.5581   30.0559  -69.8933 H         1 UNK         0.0685 
     75 H75       -80.5913   28.9067  -69.0050 H         1 UNK         0.0685 
     76 H76       -80.8906   30.4406  -72.4304 H         1 UNK         0.1434 
     77 H77       -76.6371   30.6531  -72.9817 H         1 UNK         0.1329 
     78 H78       -78.2531   28.8080  -69.4724 H         1 UNK         0.1335 
     79 H79       -75.2385   30.2297  -70.9144 H         1 UNK         0.0680 
     80 H80       -75.8649   29.2118  -69.6350 H         1 UNK         0.0680 
     81 H81       -73.4756   28.1075  -69.9713 H         1 UNK         0.1032 
     82 H82       -73.1385   26.8897  -71.1714 H         1 UNK         0.1032 
     83 H83       -72.9518   29.9135  -71.5408 H         1 UNK         0.0461 
     84 H84       -70.4103   28.2616  -73.1975 H         1 UNK         0.3453 
     85 H85       -69.2415   28.4009  -71.9069 H         1 UNK         0.3453 
     86 H86       -73.2169   27.9322  -73.6083 H         1 UNK         0.2984 
     87 H87       -73.7087   29.5769  -75.8897 H         1 UNK         0.0554 
     88 H88       -72.0017   31.2298  -76.5326 H         1 UNK         0.0847 
     89 H89       -71.9530   29.8805  -77.6531 H         1 UNK         0.0847 
     90 H90       -70.7229   30.0327  -76.3981 H         1 UNK         0.0847 
     91 H91       -73.3356   27.4039  -76.1890 H         1 UNK         0.3141 
     92 H92       -70.5485   25.3243  -76.2433 H         1 UNK         0.0743 
     93 H93       -72.5853   25.2483  -73.9514 H         1 UNK         0.0784 
     94 H94       -71.6672   23.8705  -74.5557 H         1 UNK         0.0784 
     95 H95       -70.8362   25.2102  -73.7834 H         1 UNK         0.0784 
     96 H96       -73.5431   25.3082  -76.2749 H         1 UNK         0.3213 
     97 H97       -73.4791   24.0108  -79.6432 H         1 UNK         0.0855 
     98 H98       -74.2990   22.8320  -76.9394 H         1 UNK         0.0814 
     99 H99       -73.1822   22.1005  -78.0836 H         1 UNK         0.0814 
    100 H100      -74.8716   22.3028  -78.5194 H         1 UNK         0.0814 
    101 H101      -75.6547   24.6914  -77.8999 H         1 UNK         0.3105 
    102 H102      -76.4393   27.6751  -79.7899 H         1 UNK         0.0547 
    103 H103      -77.2776   25.6144  -80.9186 H         1 UNK         0.0837 
    104 H104      -77.6903   24.9113  -79.3608 H         1 UNK         0.0837 
    105 H105      -78.5227   26.3561  -79.9258 H         1 UNK         0.0837 
    106 H106      -77.6829   26.5332  -77.4790 H         1 UNK         0.3020 
    107 H107      -76.0963   28.6935  -75.0959 H         1 UNK         0.1245 
    108 H108      -78.7446   28.6763  -74.6979 H         1 UNK         0.0781 
    109 H109      -78.8491   28.7314  -76.4285 H         1 UNK         0.0781 
    110 H110      -80.0438   31.1486  -74.5453 H         1 UNK         0.0836 
    111 H111      -78.9026   32.3840  -74.0730 H         1 UNK         0.0836 
    112 H112      -77.8933   26.6157  -74.6212 H         1 UNK         0.3022 
    113 H113      -75.5996   23.8720  -74.6356 H         1 UNK         0.0747 
    114 H114      -76.6560   23.5792  -72.3983 H         1 UNK         0.0793 
    115 H115      -75.4553   24.8588  -72.3693 H         1 UNK         0.0793 
    116 H116      -77.1612   25.2701  -72.3958 H         1 UNK         0.0793 
    117 H117      -78.4647   24.2187  -74.2787 H         1 UNK         0.3047 
    118 H118      -79.3119   23.5960  -77.6830 H         1 UNK         0.0822 
    119 H119      -80.6574   21.7723  -76.6297 H         1 UNK         0.0807 
    120 H120      -79.5819   21.7730  -75.2331 H         1 UNK         0.0807 
    121 H121      -78.9724   21.3129  -76.8135 H         1 UNK         0.0807 
    122 H122      -80.8067   24.0061  -75.2337 H         1 UNK         0.2946 
    123 H123      -80.9030   27.5524  -75.4754 H         1 UNK         0.1144 
    124 H124      -83.3577   27.2824  -75.6894 H         1 UNK         0.0793 
    125 H125      -83.1578   25.6135  -76.2269 H         1 UNK         0.0793 
    126 H126      -82.5815   26.9406  -77.2261 H         1 UNK         0.0793 
    127 H127      -82.4152   25.8045  -73.8476 H         1 UNK         0.2896 
@<TRIPOS>BOND
     1    1    2 1    
     2    1   67 1    
     3    1   68 1    
     4    1   69 1    
     5    2    3 2    
     6    2    4 am   BACKBONE|DICT|INTERRES
     7    4    5 1    
     8    4   70 1    
     9    5    6 1    
    10    5   65 1    
    11    5   71 1    
    12    6    7 1    
    13    6   72 1    
    14    6   73 1    
    15    7    8 1    
    16    8    9 1    
    17    8   74 1    
    18    8   75 1    
    19    9   10 ar   
    20    9   14 ar   
    21   10   11 ar   
    22   10   76 1    
    23   11   12 ar   
    24   11   48 1    
    25   12   13 ar   
    26   12   77 1    
    27   13   14 ar   
    28   13   15 1    
    29   14   78 1    
    30   15   16 1    
    31   15   79 1    
    32   15   80 1    
    33   16   17 1    
    34   17   18 1    
    35   17   81 1    
    36   17   82 1    
    37   18   19 1    
    38   18   22 1    
    39   18   83 1    
    40   19   20 am   BACKBONE|DICT|INTERRES
    41   19   21 2    
    42   20   84 1    
    43   20   85 1    
    44   22   23 am   BACKBONE|DICT|INTERRES
    45   22   86 1    
    46   23   24 2    
    47   23   25 1    
    48   25   26 1    
    49   25   27 1    
    50   25   87 1    
    51   26   88 1    
    52   26   89 1    
    53   26   90 1    
    54   27   28 am   BACKBONE|DICT|INTERRES
    55   27   91 1    
    56   28   29 2    
    57   28   30 1    
    58   30   31 1    
    59   30   32 1    
    60   30   92 1    
    61   31   93 1    
    62   31   94 1    
    63   31   95 1    
    64   32   33 am   BACKBONE|DICT|INTERRES
    65   32   96 1    
    66   33   34 2    
    67   33   35 1    
    68   35   36 1    
    69   35   37 1    
    70   35   97 1    
    71   36   98 1    
    72   36   99 1    
    73   36  100 1    
    74   37   38 am   BACKBONE|DICT|INTERRES
    75   37  101 1    
    76   38   39 2    
    77   38   40 1    
    78   40   41 1    
    79   40   42 1    
    80   40  102 1    
    81   41  103 1    
    82   41  104 1    
    83   41  105 1    
    84   42   43 am   BACKBONE|DICT|INTERRES
    85   42  106 1    
    86   43   44 2    
    87   43   45 1    
    88   45   46 1    
    89   45   49 1    
    90   45  107 1    
    91   46   47 1    
    92   46  108 1    
    93   46  109 1    
    94   47   48 1    
    95   48  110 1    
    96   48  111 1    
    97   49   50 am   BACKBONE|DICT|INTERRES
    98   49  112 1    
    99   50   51 2    
   100   50   52 1    
   101   52   53 1    
   102   52   54 1    
   103   52  113 1    
   104   53  114 1    
   105   53  115 1    
   106   53  116 1    
   107   54   55 am   BACKBONE|DICT|INTERRES
   108   54  117 1    
   109   55   56 2    
   110   55   57 1    
   111   57   58 1    
   112   57   59 1    
   113   57  118 1    
   114   58  119 1    
   115   58  120 1    
   116   58  121 1    
   117   59   60 am   BACKBONE|DICT|INTERRES
   118   59  122 1    
   119   60   61 2    
   120   60   62 1    
   121   62   63 1    
   122   62   64 1    
   123   62  123 1    
   124   63  124 1    
   125   63  125 1    
   126   63  126 1    
   127   64   65 am   BACKBONE|DICT|INTERRES
   128   64  127 1    
   129   65   66 2    
@<TRIPOS>SUBSTRUCTURE
     1 UNK         1 GROUP             0       ****    0 ROOT    
