@<TRIPOS>MOLECULE
3R135
127   129    1
SMALL
USER_CHARGES


@<TRIPOS>ATOM
      1 CA        -80.3858   23.1504  -69.5222 C.3       0 UNK        -0.1998 
      2 C         -81.5302   23.3981  -70.4933 C.2       0 UNK         0.4909 
      3 O         -82.4872   22.6244  -70.5253 O.2       0 UNK        -0.5240 
      4 N         -81.4359   24.4690  -71.2915 N.am      1 UNK        -0.4739 
      5 CA        -82.4329   24.8646  -72.2961 C.3       1 UNK         0.0864 
      6 C6        -82.4069   26.3935  -72.5574 C.3       11 UNK        -0.0881 
      7 S7        -80.7688   27.0599  -73.0318 S.3       11 UNK        -0.2682 
      8 C8        -80.4515   28.1615  -71.6182 C.3       11 UNK         0.0289 
      9 C9        -79.2025   29.0058  -71.8170 C.ar      11 UNK        -0.0687 
     10 C10       -79.2559   30.1542  -72.6120 C.ar      11 UNK        -0.0823 
     11 C11       -78.1308   30.9719  -72.7547 C.ar      11 UNK        -0.0830 
     12 C12       -76.9526   30.6409  -72.0811 C.ar      11 UNK        -0.1021 
     13 C13       -76.8716   29.4723  -71.3184 C.ar      11 UNK        -0.0753 
     14 C14       -78.0045   28.6636  -71.1822 C.ar      11 UNK        -0.0933 
     15 C15       -75.5666   29.0854  -70.6359 C.3       11 UNK         0.0166 
     16 S16       -74.3280   28.4853  -71.8313 S.3       11 UNK        -0.2615 
     17 C17       -73.5698   30.0560  -72.3821 C.3       11 UNK        -0.0865 
     18 CA        -72.1385   29.9119  -72.9541 C.3       10 UNK         0.0862 
     19 C         -71.1056   29.4321  -71.8897 C.2       10 UNK         0.5551 
     20 N         -70.4168   28.3116  -72.0763 N.am      10 UNK        -0.7319 
     21 O         -70.9144   30.1049  -70.8794 O.2       10 UNK        -0.5018 
     22 N         -72.1358   29.1555  -74.2142 N.am      10 UNK        -0.4509 
     23 C         -71.1833   29.2582  -75.1509 C.2       10 UNK         0.4899 
     24 O         -70.2719   30.0865  -75.1039 O.2       10 UNK        -0.4839 
     25 CA        -71.2496   28.2682  -76.3321 C.3       9 UNK         0.0222 
     26 CB        -69.8709   28.0314  -76.9828 C.3       9 UNK        -0.1966 
     27 N         -71.8783   26.9839  -76.0028 N.am      9 UNK        -0.4218 
     28 C         -71.5384   26.1176  -75.0337 C.2       9 UNK         0.5020 
     29 O         -70.6110   26.3043  -74.2444 O.2       9 UNK        -0.5274 
     30 CA        -72.3864   24.8394  -74.9009 C.3       8 UNK         0.0270 
     31 CB        -73.0032   24.7330  -73.4939 C.3       8 UNK        -0.1976 
     32 N         -73.4577   24.8006  -75.9021 N.am      8 UNK        -0.4313 
     33 C         -73.4372   24.0466  -77.0089 C.2       8 UNK         0.5041 
     34 O         -72.5565   23.2228  -77.2599 O.2       8 UNK        -0.5577 
     35 CA        -74.5721   24.2509  -78.0262 C.3       7 UNK         0.0284 
     36 CB        -75.7620   23.3292  -77.7122 C.3       7 UNK        -0.1958 
     37 N         -75.0378   25.6366  -78.1510 N.am      7 UNK        -0.4454 
     38 C         -74.3165   26.6420  -78.6694 C.2       7 UNK         0.5089 
     39 O         -73.1240   26.5478  -78.9560 O.2       7 UNK        -0.5125 
     40 CA        -75.0400   27.9754  -78.9117 C.3       6 UNK         0.0408 
     41 CB        -75.9672   27.8698  -80.1335 C.3       6 UNK        -0.1791 
     42 N         -75.8238   28.3672  -77.7434 N.am      6 UNK        -0.4762 
     43 C         -75.4644   29.3038  -76.8528 C.2       6 UNK         0.5007 
     44 O         -74.4624   30.0107  -76.9641 O.2       6 UNK        -0.5032 
     45 CA        -76.3633   29.4485  -75.6023 C.3       5 UNK         0.0783 
     46 C46       -77.4642   30.5260  -75.8196 C.3       11 UNK        -0.0857 
     47 S47       -77.0148   32.1152  -75.0435 S.3       11 UNK        -0.2512 
     48 C48       -78.1853   32.2075  -73.6446 C.3       11 UNK         0.0225 
     49 N         -76.9312   28.1725  -75.1513 N.am      5 UNK        -0.4615 
     50 C         -76.2256   27.0693  -74.8669 C.2       4 UNK         0.5053 
     51 O         -74.9978   27.0048  -74.9215 O.2       4 UNK        -0.5105 
     52 CA        -77.0182   25.7887  -74.5656 C.3       4 UNK         0.0263 
     53 CB        -77.1987   25.5977  -73.0534 C.3       4 UNK        -0.1981 
     54 N         -78.3209   25.6955  -75.2361 N.am      4 UNK        -0.4224 
     55 C         -78.5412   25.7729  -76.5591 C.2       3 UNK         0.4895 
     56 O         -77.6724   26.0791  -77.3785 O.2       3 UNK        -0.5091 
     57 CA        -79.9696   25.4514  -77.0442 C.3       3 UNK         0.0250 
     58 CB        -80.0116   25.0675  -78.5386 C.3       3 UNK        -0.1996 
     59 N         -80.6405   24.4314  -76.2256 N.am      3 UNK        -0.4254 
     60 C         -80.2286   23.1779  -75.9745 C.2       2 UNK         0.5004 
     61 O         -79.2257   22.6707  -76.4790 O.2       2 UNK        -0.5226 
     62 CA        -81.0546   22.3825  -74.9427 C.3       2 UNK         0.0269 
     63 CB        -80.3643   21.0741  -74.5125 C.3       2 UNK        -0.1926 
     64 N         -81.3332   23.1814  -73.7438 N.am      2 UNK        -0.4687 
     65 C         -82.3372   24.0596  -73.6118 C.2       1 UNK         0.5165 
     66 O         -83.1518   24.2745  -74.5107 O.2       1 UNK        -0.5079 
     67 H67       -79.6056   23.9065  -69.6092 H         1 UNK         0.0900 
     68 H68       -80.7554   23.1614  -68.4972 H         1 UNK         0.0900 
     69 H69       -79.9365   22.1760  -69.7121 H         1 UNK         0.0900 
     70 H70       -80.6270   25.0713  -71.2310 H         1 UNK         0.2959 
     71 H71       -83.4214   24.6309  -71.8933 H         1 UNK         0.1079 
     72 H72       -83.1262   26.6695  -73.3312 H         1 UNK         0.0837 
     73 H73       -82.7570   26.9049  -71.6596 H         1 UNK         0.0837 
     74 H74       -81.3079   28.8226  -71.4757 H         1 UNK         0.0685 
     75 H75       -80.3691   27.5653  -70.7081 H         1 UNK         0.0685 
     76 H76       -80.1784   30.4098  -73.1156 H         1 UNK         0.1434 
     77 H77       -76.0918   31.2860  -72.1757 H         1 UNK         0.1329 
     78 H78       -77.9560   27.7695  -70.5759 H         1 UNK         0.1335 
     79 H79       -75.7447   28.2945  -69.9058 H         1 UNK         0.0680 
     80 H80       -75.1742   29.9317  -70.0707 H         1 UNK         0.0680 
     81 H81       -74.2087   30.5040  -73.1422 H         1 UNK         0.1032 
     82 H82       -73.5603   30.7634  -71.5509 H         1 UNK         0.1032 
     83 H83       -71.8216   30.9262  -73.2052 H         1 UNK         0.0461 
     84 H84       -69.7499   28.0239  -71.3787 H         1 UNK         0.3453 
     85 H85       -70.5597   27.7371  -72.9010 H         1 UNK         0.3453 
     86 H86       -72.8458   28.4415  -74.3083 H         1 UNK         0.2984 
     87 H87       -71.8928   28.7343  -77.0798 H         1 UNK         0.0554 
     88 H88       -69.4455   28.9637  -77.3562 H         1 UNK         0.0847 
     89 H89       -69.9457   27.3507  -77.8310 H         1 UNK         0.0847 
     90 H90       -69.1584   27.6083  -76.2738 H         1 UNK         0.0847 
     91 H91       -72.6454   26.7193  -76.6046 H         1 UNK         0.3141 
     92 H92       -71.7098   23.9930  -75.0340 H         1 UNK         0.0743 
     93 H93       -72.2249   24.6537  -72.7339 H         1 UNK         0.0784 
     94 H94       -73.6065   25.6055  -73.2431 H         1 UNK         0.0784 
     95 H95       -73.6354   23.8498  -73.4024 H         1 UNK         0.0784 
     96 H96       -74.2039   25.4776  -75.7642 H         1 UNK         0.3213 
     97 H97       -74.1788   23.9579  -79.0022 H         1 UNK         0.0855 
     98 H98       -76.2185   23.5605  -76.7508 H         1 UNK         0.0814 
     99 H99       -75.4482   22.2851  -77.6783 H         1 UNK         0.0814 
    100 H100      -76.5386   23.4081  -78.4734 H         1 UNK         0.0814 
    101 H101      -76.0183   25.8039  -77.9257 H         1 UNK         0.3105 
    102 H102      -74.2831   28.7313  -79.1320 H         1 UNK         0.0547 
    103 H103      -76.4340   28.8289  -80.3577 H         1 UNK         0.0837 
    104 H104      -75.4106   27.5657  -81.0210 H         1 UNK         0.0837 
    105 H105      -76.7631   27.1395  -79.9804 H         1 UNK         0.0837 
    106 H106      -76.6374   27.7956  -77.5383 H         1 UNK         0.3020 
    107 H107      -75.7049   29.7627  -74.7908 H         1 UNK         0.1245 
    108 H108      -78.4215   30.1987  -75.4123 H         1 UNK         0.0781 
    109 H109      -77.6651   30.7045  -76.8782 H         1 UNK         0.0781 
    110 H110      -79.1916   32.3595  -74.0381 H         1 UNK         0.0836 
    111 H111      -77.9544   33.0899  -73.0464 H         1 UNK         0.0836 
    112 H112      -77.9359   28.1247  -75.0744 H         1 UNK         0.3022 
    113 H113      -76.4142   24.9564  -74.9280 H         1 UNK         0.0747 
    114 H114      -77.5954   24.6092  -72.8222 H         1 UNK         0.0793 
    115 H115      -76.2474   25.6969  -72.5277 H         1 UNK         0.0793 
    116 H116      -77.8791   26.3377  -72.6370 H         1 UNK         0.0793 
    117 H117      -79.1098   25.4771  -74.6452 H         1 UNK         0.3047 
    118 H118      -80.5435   26.3710  -76.9211 H         1 UNK         0.0822 
    119 H119      -79.6362   25.8795  -79.1628 H         1 UNK         0.0807 
    120 H120      -81.0289   24.8534  -78.8655 H         1 UNK         0.0807 
    121 H121      -79.3994   24.1894  -78.7472 H         1 UNK         0.0807 
    122 H122      -81.4939   24.7278  -75.7646 H         1 UNK         0.2946 
    123 H123      -81.9975   22.1177  -75.4273 H         1 UNK         0.1144 
    124 H124      -80.9765   20.5176  -73.8025 H         1 UNK         0.0793 
    125 H125      -79.3963   21.2625  -74.0465 H         1 UNK         0.0793 
    126 H126      -80.1929   20.4211  -75.3694 H         1 UNK         0.0793 
    127 H127      -80.6932   23.0789  -72.9697 H         1 UNK         0.2896 
@<TRIPOS>BOND
     1    1    2 1    
     2    1   67 1    
     3    1   68 1    
     4    1   69 1    
     5    2    3 2    
     6    2    4 am   BACKBONE|DICT|INTERRES
     7    4    5 1    
     8    4   70 1    
     9    5    6 1    
    10    5   65 1    
    11    5   71 1    
    12    6    7 1    
    13    6   72 1    
    14    6   73 1    
    15    7    8 1    
    16    8    9 1    
    17    8   74 1    
    18    8   75 1    
    19    9   10 ar   
    20    9   14 ar   
    21   10   11 ar   
    22   10   76 1    
    23   11   12 ar   
    24   11   48 1    
    25   12   13 ar   
    26   12   77 1    
    27   13   14 ar   
    28   13   15 1    
    29   14   78 1    
    30   15   16 1    
    31   15   79 1    
    32   15   80 1    
    33   16   17 1    
    34   17   18 1    
    35   17   81 1    
    36   17   82 1    
    37   18   19 1    
    38   18   22 1    
    39   18   83 1    
    40   19   20 am   BACKBONE|DICT|INTERRES
    41   19   21 2    
    42   20   84 1    
    43   20   85 1    
    44   22   23 am   BACKBONE|DICT|INTERRES
    45   22   86 1    
    46   23   24 2    
    47   23   25 1    
    48   25   26 1    
    49   25   27 1    
    50   25   87 1    
    51   26   88 1    
    52   26   89 1    
    53   26   90 1    
    54   27   28 am   BACKBONE|DICT|INTERRES
    55   27   91 1    
    56   28   29 2    
    57   28   30 1    
    58   30   31 1    
    59   30   32 1    
    60   30   92 1    
    61   31   93 1    
    62   31   94 1    
    63   31   95 1    
    64   32   33 am   BACKBONE|DICT|INTERRES
    65   32   96 1    
    66   33   34 2    
    67   33   35 1    
    68   35   36 1    
    69   35   37 1    
    70   35   97 1    
    71   36   98 1    
    72   36   99 1    
    73   36  100 1    
    74   37   38 am   BACKBONE|DICT|INTERRES
    75   37  101 1    
    76   38   39 2    
    77   38   40 1    
    78   40   41 1    
    79   40   42 1    
    80   40  102 1    
    81   41  103 1    
    82   41  104 1    
    83   41  105 1    
    84   42   43 am   BACKBONE|DICT|INTERRES
    85   42  106 1    
    86   43   44 2    
    87   43   45 1    
    88   45   46 1    
    89   45   49 1    
    90   45  107 1    
    91   46   47 1    
    92   46  108 1    
    93   46  109 1    
    94   47   48 1    
    95   48  110 1    
    96   48  111 1    
    97   49   50 am   BACKBONE|DICT|INTERRES
    98   49  112 1    
    99   50   51 2    
   100   50   52 1    
   101   52   53 1    
   102   52   54 1    
   103   52  113 1    
   104   53  114 1    
   105   53  115 1    
   106   53  116 1    
   107   54   55 am   BACKBONE|DICT|INTERRES
   108   54  117 1    
   109   55   56 2    
   110   55   57 1    
   111   57   58 1    
   112   57   59 1    
   113   57  118 1    
   114   58  119 1    
   115   58  120 1    
   116   58  121 1    
   117   59   60 am   BACKBONE|DICT|INTERRES
   118   59  122 1    
   119   60   61 2    
   120   60   62 1    
   121   62   63 1    
   122   62   64 1    
   123   62  123 1    
   124   63  124 1    
   125   63  125 1    
   126   63  126 1    
   127   64   65 am   BACKBONE|DICT|INTERRES
   128   64  127 1    
   129   65   66 2    
@<TRIPOS>SUBSTRUCTURE
     1 UNK         1 GROUP             0       ****    0 ROOT    
