@<TRIPOS>MOLECULE
3R135
127   129    1
SMALL
USER_CHARGES


@<TRIPOS>ATOM
      1 CA        -84.7447   28.5648  -74.4484 C.3       0 UNK        -0.1998 
      2 C         -83.2452   28.3932  -74.2599 C.2       0 UNK         0.4909 
      3 O         -82.4641   29.1446  -74.8435 O.2       0 UNK        -0.5240 
      4 N         -82.8352   27.4043  -73.4542 N.am      1 UNK        -0.4739 
      5 CA        -81.4282   27.1140  -73.1392 C.3       1 UNK         0.0864 
      6 C6        -81.2581   26.4691  -71.7400 C.3       11 UNK        -0.0881 
      7 S7        -81.8968   27.5574  -70.4173 S.3       11 UNK        -0.2682 
      8 C8        -80.3924   27.9686  -69.4609 C.3       11 UNK         0.0289 
      9 C9        -79.2921   28.6877  -70.2438 C.ar      11 UNK        -0.0687 
     10 C10       -79.5816   29.5862  -71.2788 C.ar      11 UNK        -0.0823 
     11 C11       -78.5544   30.1980  -72.0055 C.ar      11 UNK        -0.0830 
     12 C12       -77.2258   29.9629  -71.6408 C.ar      11 UNK        -0.1021 
     13 C13       -76.9208   29.0850  -70.5991 C.ar      11 UNK        -0.0753 
     14 C14       -77.9553   28.4489  -69.9076 C.ar      11 UNK        -0.0933 
     15 C15       -75.4699   28.7854  -70.2651 C.3       11 UNK         0.0166 
     16 S16       -74.8642   27.4718  -71.3570 S.3       11 UNK        -0.2615 
     17 C17       -73.0843   27.4298  -70.9758 C.3       11 UNK        -0.0865 
     18 CA        -72.2427   28.4074  -71.8395 C.3       10 UNK         0.0862 
     19 C         -70.7306   28.2845  -71.4813 C.2       10 UNK         0.5551 
     20 N         -69.8499   27.8900  -72.3944 N.am      10 UNK        -0.7319 
     21 O         -70.3498   28.5561  -70.3451 O.2       10 UNK        -0.5018 
     22 N         -72.5494   28.3000  -73.2768 N.am      10 UNK        -0.4509 
     23 C         -72.2104   29.2146  -74.1944 C.2       10 UNK         0.4899 
     24 O         -71.6751   30.2903  -73.9202 O.2       10 UNK        -0.4839 
     25 CA        -72.5104   28.8600  -75.6638 C.3       9 UNK         0.0222 
     26 CB        -71.7097   29.7194  -76.6641 C.3       9 UNK        -0.1966 
     27 N         -72.3432   27.4346  -75.9724 N.am      9 UNK        -0.4218 
     28 C         -71.2462   26.6807  -75.8018 C.2       9 UNK         0.5020 
     29 O         -70.1977   27.0871  -75.2981 O.2       9 UNK        -0.5274 
     30 CA        -71.3363   25.2192  -76.2716 C.3       8 UNK         0.0270 
     31 CB        -71.8352   24.3061  -75.1398 C.3       8 UNK        -0.1976 
     32 N         -72.1926   25.0610  -77.4511 N.am      8 UNK        -0.4313 
     33 C         -71.8452   25.4139  -78.6951 C.2       8 UNK         0.5041 
     34 O         -70.7437   25.8791  -78.9906 O.2       8 UNK        -0.5577 
     35 CA        -72.8950   25.2170  -79.8041 C.3       7 UNK         0.0284 
     36 CB        -73.1993   23.7230  -80.0394 C.3       7 UNK        -0.1958 
     37 N         -74.1255   26.0007  -79.6191 N.am      7 UNK        -0.4454 
     38 C         -75.0457   25.8872  -78.6530 C.2       7 UNK         0.5089 
     39 O         -74.9830   25.0702  -77.7303 O.2       7 UNK        -0.5125 
     40 CA        -76.2526   26.8317  -78.7538 C.3       6 UNK         0.0408 
     41 CB        -77.3707   26.1808  -79.5830 C.3       6 UNK        -0.1791 
     42 N         -76.7573   27.1055  -77.4118 N.am      6 UNK        -0.4762 
     43 C         -76.4450   28.1796  -76.6742 C.2       6 UNK         0.5007 
     44 O         -75.8302   29.1516  -77.1130 O.2       6 UNK        -0.5032 
     45 CA        -76.8621   28.1417  -75.1863 C.3       5 UNK         0.0783 
     46 C46       -78.1836   28.9214  -74.9468 C.3       11 UNK        -0.0857 
     47 S47       -77.9037   30.7102  -74.6980 S.3       11 UNK        -0.2512 
     48 C48       -78.8906   31.0845  -73.2016 C.3       11 UNK         0.0225 
     49 N         -76.9388   26.7632  -74.6804 N.am      5 UNK        -0.4615 
     50 C         -75.8757   25.9665  -74.4964 C.2       4 UNK         0.5053 
     51 O         -74.7190   26.3510  -74.6684 O.2       4 UNK        -0.5105 
     52 CA        -76.1061   24.5050  -74.0766 C.3       4 UNK         0.0263 
     53 CB        -75.8007   24.2967  -72.5841 C.3       4 UNK        -0.1981 
     54 N         -77.4475   23.9920  -74.3814 N.am      4 UNK        -0.4224 
     55 C         -77.6929   22.7225  -74.7448 C.2       3 UNK         0.4895 
     56 O         -76.8137   21.8701  -74.8817 O.2       3 UNK        -0.5091 
     57 CA        -79.1576   22.2993  -74.9800 C.3       3 UNK         0.0250 
     58 CB        -79.7087   21.5759  -73.7400 C.3       3 UNK        -0.1996 
     59 N         -80.0552   23.4024  -75.3230 N.am      3 UNK        -0.4254 
     60 C         -79.9906   24.1246  -76.4486 C.2       2 UNK         0.5004 
     61 O         -79.2164   23.8791  -77.3729 O.2       2 UNK        -0.5226 
     62 CA        -80.9236   25.3452  -76.5606 C.3       2 UNK         0.0269 
     63 CB        -82.1107   25.0256  -77.4836 C.3       2 UNK        -0.1926 
     64 N         -81.4400   25.8978  -75.2979 N.am      2 UNK        -0.4687 
     65 C         -80.7177   26.2968  -74.2390 C.2       1 UNK         0.5165 
     66 O         -79.5176   26.0523  -74.1150 O.2       1 UNK        -0.5079 
     67 H67       -85.0063   28.4522  -75.5002 H         1 UNK         0.0900 
     68 H68       -85.0509   29.5595  -74.1256 H         1 UNK         0.0900 
     69 H69       -85.3143   27.8328  -73.8762 H         1 UNK         0.0900 
     70 H70       -83.5182   26.8253  -72.9856 H         1 UNK         0.2959 
     71 H71       -80.8929   28.0634  -73.1228 H         1 UNK         0.1079 
     72 H72       -81.7842   25.5143  -71.6895 H         1 UNK         0.0837 
     73 H73       -80.2078   26.2478  -71.5385 H         1 UNK         0.0837 
     74 H74       -80.6815   28.5992  -68.6194 H         1 UNK         0.0685 
     75 H75       -80.0042   27.0434  -69.0320 H         1 UNK         0.0685 
     76 H76       -80.6109   29.7895  -71.5393 H         1 UNK         0.1434 
     77 H77       -76.4241   30.4322  -72.1946 H         1 UNK         0.1329 
     78 H78       -77.7155   27.7562  -69.1124 H         1 UNK         0.1335 
     79 H79       -74.8618   29.6822  -70.3934 H         1 UNK         0.0680 
     80 H80       -75.3667   28.4772  -69.2235 H         1 UNK         0.0680 
     81 H81       -72.9458   27.6360  -69.9126 H         1 UNK         0.1032 
     82 H82       -72.7418   26.4049  -71.1298 H         1 UNK         0.1032 
     83 H83       -72.5310   29.4168  -71.5399 H         1 UNK         0.0461 
     84 H84       -70.1362   27.6779  -73.3439 H         1 UNK         0.3453 
     85 H85       -68.8777   27.8205  -72.1401 H         1 UNK         0.3453 
     86 H86       -73.0367   27.4646  -73.5774 H         1 UNK         0.2984 
     87 H87       -73.5667   29.0808  -75.8092 H         1 UNK         0.0554 
     88 H88       -71.9653   29.4694  -77.6938 H         1 UNK         0.0847 
     89 H89       -70.6347   29.5826  -76.5421 H         1 UNK         0.0847 
     90 H90       -71.9217   30.7807  -76.5286 H         1 UNK         0.0847 
     91 H91       -73.1852   26.9571  -76.2679 H         1 UNK         0.3141 
     92 H92       -70.3260   24.9004  -76.5375 H         1 UNK         0.0743 
     93 H93       -71.2155   24.4149  -74.2486 H         1 UNK         0.0784 
     94 H94       -72.8608   24.5348  -74.8527 H         1 UNK         0.0784 
     95 H95       -71.7980   23.2571  -75.4337 H         1 UNK         0.0784 
     96 H96       -73.1537   24.7586  -77.3066 H         1 UNK         0.3213 
     97 H97       -72.4446   25.5964  -80.7232 H         1 UNK         0.0855 
     98 H98       -73.6691   23.2530  -79.1751 H         1 UNK         0.0814 
     99 H99       -72.2831   23.1691  -80.2487 H         1 UNK         0.0814 
    100 H100      -73.8618   23.5852  -80.8938 H         1 UNK         0.0814 
    101 H101      -74.2706   26.7227  -80.3123 H         1 UNK         0.3105 
    102 H102      -75.9475   27.7595  -79.2424 H         1 UNK         0.0547 
    103 H103      -78.2513   26.8211  -79.6349 H         1 UNK         0.0837 
    104 H104      -77.0427   25.9973  -80.6069 H         1 UNK         0.0837 
    105 H105      -77.6786   25.2217  -79.1645 H         1 UNK         0.0837 
    106 H106      -77.1828   26.3206  -76.9391 H         1 UNK         0.3020 
    107 H107      -76.0657   28.6310  -74.6195 H         1 UNK         0.1245 
    108 H108      -78.6731   28.5372  -74.0540 H         1 UNK         0.0781 
    109 H109      -78.9005   28.7725  -75.7568 H         1 UNK         0.0781 
    110 H110      -78.7288   32.1267  -72.9240 H         1 UNK         0.0836 
    111 H111      -79.9471   30.9946  -73.4609 H         1 UNK         0.0836 
    112 H112      -77.8741   26.4271  -74.4612 H         1 UNK         0.3022 
    113 H113      -75.3752   23.9315  -74.6510 H         1 UNK         0.0747 
    114 H114      -75.8654   23.2446  -72.3068 H         1 UNK         0.0793 
    115 H115      -76.4926   24.8551  -71.9525 H         1 UNK         0.0793 
    116 H116      -74.7904   24.6301  -72.3437 H         1 UNK         0.0793 
    117 H117      -78.2285   24.6331  -74.2802 H         1 UNK         0.3047 
    118 H118      -79.1604   21.5965  -75.8160 H         1 UNK         0.0822 
    119 H119      -79.0807   20.7245  -73.4734 H         1 UNK         0.0807 
    120 H120      -80.7132   21.1912  -73.9173 H         1 UNK         0.0807 
    121 H121      -79.7480   22.2356  -72.8721 H         1 UNK         0.0807 
    122 H122      -80.7224   23.6847  -74.6202 H         1 UNK         0.2946 
    123 H123      -80.3337   26.1353  -77.0307 H         1 UNK         0.1144 
    124 H124      -81.7681   24.6416  -78.4458 H         1 UNK         0.0793 
    125 H125      -82.7067   25.9153  -77.6885 H         1 UNK         0.0793 
    126 H126      -82.7679   24.2724  -77.0474 H         1 UNK         0.0793 
    127 H127      -82.4224   26.1314  -75.2877 H         1 UNK         0.2896 
@<TRIPOS>BOND
     1    1    2 1    
     2    1   67 1    
     3    1   68 1    
     4    1   69 1    
     5    2    3 2    
     6    2    4 am   BACKBONE|DICT|INTERRES
     7    4    5 1    
     8    4   70 1    
     9    5    6 1    
    10    5   65 1    
    11    5   71 1    
    12    6    7 1    
    13    6   72 1    
    14    6   73 1    
    15    7    8 1    
    16    8    9 1    
    17    8   74 1    
    18    8   75 1    
    19    9   10 ar   
    20    9   14 ar   
    21   10   11 ar   
    22   10   76 1    
    23   11   12 ar   
    24   11   48 1    
    25   12   13 ar   
    26   12   77 1    
    27   13   14 ar   
    28   13   15 1    
    29   14   78 1    
    30   15   16 1    
    31   15   79 1    
    32   15   80 1    
    33   16   17 1    
    34   17   18 1    
    35   17   81 1    
    36   17   82 1    
    37   18   19 1    
    38   18   22 1    
    39   18   83 1    
    40   19   20 am   BACKBONE|DICT|INTERRES
    41   19   21 2    
    42   20   84 1    
    43   20   85 1    
    44   22   23 am   BACKBONE|DICT|INTERRES
    45   22   86 1    
    46   23   24 2    
    47   23   25 1    
    48   25   26 1    
    49   25   27 1    
    50   25   87 1    
    51   26   88 1    
    52   26   89 1    
    53   26   90 1    
    54   27   28 am   BACKBONE|DICT|INTERRES
    55   27   91 1    
    56   28   29 2    
    57   28   30 1    
    58   30   31 1    
    59   30   32 1    
    60   30   92 1    
    61   31   93 1    
    62   31   94 1    
    63   31   95 1    
    64   32   33 am   BACKBONE|DICT|INTERRES
    65   32   96 1    
    66   33   34 2    
    67   33   35 1    
    68   35   36 1    
    69   35   37 1    
    70   35   97 1    
    71   36   98 1    
    72   36   99 1    
    73   36  100 1    
    74   37   38 am   BACKBONE|DICT|INTERRES
    75   37  101 1    
    76   38   39 2    
    77   38   40 1    
    78   40   41 1    
    79   40   42 1    
    80   40  102 1    
    81   41  103 1    
    82   41  104 1    
    83   41  105 1    
    84   42   43 am   BACKBONE|DICT|INTERRES
    85   42  106 1    
    86   43   44 2    
    87   43   45 1    
    88   45   46 1    
    89   45   49 1    
    90   45  107 1    
    91   46   47 1    
    92   46  108 1    
    93   46  109 1    
    94   47   48 1    
    95   48  110 1    
    96   48  111 1    
    97   49   50 am   BACKBONE|DICT|INTERRES
    98   49  112 1    
    99   50   51 2    
   100   50   52 1    
   101   52   53 1    
   102   52   54 1    
   103   52  113 1    
   104   53  114 1    
   105   53  115 1    
   106   53  116 1    
   107   54   55 am   BACKBONE|DICT|INTERRES
   108   54  117 1    
   109   55   56 2    
   110   55   57 1    
   111   57   58 1    
   112   57   59 1    
   113   57  118 1    
   114   58  119 1    
   115   58  120 1    
   116   58  121 1    
   117   59   60 am   BACKBONE|DICT|INTERRES
   118   59  122 1    
   119   60   61 2    
   120   60   62 1    
   121   62   63 1    
   122   62   64 1    
   123   62  123 1    
   124   63  124 1    
   125   63  125 1    
   126   63  126 1    
   127   64   65 am   BACKBONE|DICT|INTERRES
   128   64  127 1    
   129   65   66 2    
@<TRIPOS>SUBSTRUCTURE
     1 UNK         1 GROUP             0       ****    0 ROOT    
