@<TRIPOS>MOLECULE
3R135
127   129    1
SMALL
USER_CHARGES


@<TRIPOS>ATOM
      1 CA        -83.1800   27.2097  -71.3820 C.3       0 UNK        -0.1998 
      2 C         -83.5627   27.5073  -72.8239 C.2       0 UNK         0.4909 
      3 O         -84.7004   27.2561  -73.2219 O.2       0 UNK        -0.5240 
      4 N         -82.6189   28.0407  -73.6096 N.am      1 UNK        -0.4739 
      5 CA        -82.7812   28.3479  -75.0372 C.3       1 UNK         0.0864 
      6 C6        -81.7726   29.4247  -75.5180 C.3       11 UNK        -0.0881 
      7 S7        -80.0356   29.0516  -75.0937 S.3       11 UNK        -0.2682 
      8 C8        -79.7630   30.1969  -73.7096 C.3       11 UNK         0.0289 
      9 C9        -78.5460   29.7895  -72.8965 C.ar      11 UNK        -0.0687 
     10 C10       -78.6614   28.7937  -71.9235 C.ar      11 UNK        -0.0823 
     11 C11       -77.5578   28.4309  -71.1491 C.ar      11 UNK        -0.0830 
     12 C12       -76.3366   29.0809  -71.3455 C.ar      11 UNK        -0.1021 
     13 C13       -76.1941   30.0630  -72.3363 C.ar      11 UNK        -0.0753 
     14 C14       -77.3111   30.4113  -73.1038 C.ar      11 UNK        -0.0933 
     15 C15       -74.8713   30.7840  -72.6149 C.3       11 UNK         0.0166 
     16 S16       -73.4045   30.1417  -71.7340 S.3       11 UNK        -0.2615 
     17 C17       -73.1451   28.5399  -72.5754 C.3       11 UNK        -0.0865 
     18 CA        -71.6435   28.2536  -72.8332 C.3       10 UNK         0.0862 
     19 C         -71.4128   26.7979  -73.3372 C.2       10 UNK         0.5551 
     20 N         -70.7616   26.5693  -74.4724 N.am      10 UNK        -0.7319 
     21 O         -71.8129   25.8503  -72.6658 O.2       10 UNK        -0.5018 
     22 N         -71.0358   29.2869  -73.6840 N.am      10 UNK        -0.4509 
     23 C         -69.7445   29.6406  -73.6592 C.2       10 UNK         0.4899 
     24 O         -68.9315   29.1983  -72.8458 O.2       10 UNK        -0.4839 
     25 CA        -69.2845   30.6582  -74.7273 C.3       9 UNK         0.0222 
     26 CB        -67.7755   30.5506  -75.0353 C.3       9 UNK        -0.1966 
     27 N         -70.0697   30.6069  -75.9702 N.am      9 UNK        -0.4218 
     28 C         -70.2461   29.5402  -76.7634 C.2       9 UNK         0.5020 
     29 O         -69.7269   28.4372  -76.5727 O.2       9 UNK        -0.5274 
     30 CA        -71.1835   29.7356  -77.9649 C.3       8 UNK         0.0270 
     31 CB        -70.3735   29.9299  -79.2570 C.3       8 UNK        -0.1976 
     32 N         -72.0883   28.5955  -78.1236 N.am      8 UNK        -0.4313 
     33 C         -73.0308   28.2401  -77.2409 C.2       8 UNK         0.5041 
     34 O         -73.2787   28.8654  -76.2051 O.2       8 UNK        -0.5577 
     35 CA        -73.8149   26.9667  -77.5746 C.3       7 UNK         0.0284 
     36 CB        -73.0390   25.7070  -77.1536 C.3       7 UNK        -0.1958 
     37 N         -75.0958   26.9918  -76.8788 N.am      7 UNK        -0.4454 
     38 C         -76.2512   26.5217  -77.3540 C.2       7 UNK         0.5089 
     39 O         -76.3687   25.9942  -78.4621 O.2       7 UNK        -0.5125 
     40 CA        -77.4699   26.6488  -76.4209 C.3       6 UNK         0.0408 
     41 CB        -78.7933   26.3244  -77.1380 C.3       6 UNK        -0.1791 
     42 N         -77.3352   25.7750  -75.2544 N.am      6 UNK        -0.4762 
     43 C         -76.5635   26.0234  -74.1841 C.2       6 UNK         0.5007 
     44 O         -75.8914   27.0462  -74.0595 O.2       6 UNK        -0.5032 
     45 CA        -76.4889   24.9290  -73.0965 C.3       5 UNK         0.0783 
     46 C46       -77.4854   25.1853  -71.9301 C.3       11 UNK        -0.0857 
     47 S47       -76.6562   25.8897  -70.4656 S.3       11 UNK        -0.2512 
     48 C48       -77.6839   27.3464  -70.0892 C.3       11 UNK         0.0225 
     49 N         -76.6587   23.5860  -73.6583 N.am      5 UNK        -0.4615 
     50 C         -75.7654   22.9638  -74.4401 C.2       4 UNK         0.5053 
     51 O         -74.6628   23.4309  -74.7232 O.2       4 UNK        -0.5105 
     52 CA        -76.1613   21.5863  -75.0052 C.3       4 UNK         0.0263 
     53 CB        -75.4501   20.4645  -74.2305 C.3       4 UNK        -0.1981 
     54 N         -77.6059   21.3260  -75.0058 N.am      4 UNK        -0.4224 
     55 C         -78.5093   21.9982  -75.7328 C.2       3 UNK         0.4895 
     56 O         -78.2130   22.9230  -76.4913 O.2       3 UNK        -0.5091 
     57 CA        -79.9789   21.5499  -75.6027 C.3       3 UNK         0.0250 
     58 CB        -80.3363   21.0060  -74.1993 C.3       3 UNK        -0.1996 
     59 N         -80.9279   22.5938  -76.0106 N.am      3 UNK        -0.4254 
     60 C         -81.1268   23.7872  -75.4314 C.2       2 UNK         0.5004 
     61 O         -80.5206   24.1922  -74.4340 O.2       2 UNK        -0.5226 
     62 CA        -82.2136   24.6611  -76.0744 C.3       2 UNK         0.0269 
     63 CB        -83.6025   23.9957  -75.9737 C.3       2 UNK        -0.1926 
     64 N         -82.2494   25.9641  -75.4161 N.am      2 UNK        -0.4687 
     65 C         -82.7623   27.0880  -75.9331 C.2       1 UNK         0.5165 
     66 O         -83.2327   27.1547  -77.0702 O.2       1 UNK        -0.5079 
     67 H67       -82.1525   27.4995  -71.1631 H         1 UNK         0.0900 
     68 H68       -83.8365   27.7502  -70.7006 H         1 UNK         0.0900 
     69 H69       -83.2820   26.1438  -71.1799 H         1 UNK         0.0900 
     70 H70       -81.6956   28.2150  -73.2411 H         1 UNK         0.2959 
     71 H71       -83.7795   28.7735  -75.1650 H         1 UNK         0.1079 
     72 H72       -82.0445   30.3903  -75.0888 H         1 UNK         0.0837 
     73 H73       -81.8420   29.5663  -76.5985 H         1 UNK         0.0837 
     74 H74       -79.6465   31.2097  -74.0985 H         1 UNK         0.0685 
     75 H75       -80.6404   30.2157  -73.0614 H         1 UNK         0.0685 
     76 H76       -79.6120   28.3032  -71.7692 H         1 UNK         0.1434 
     77 H77       -75.4995   28.7933  -70.7271 H         1 UNK         0.1329 
     78 H78       -77.2195   31.1734  -73.8657 H         1 UNK         0.1335 
     79 H79       -74.6681   30.7644  -73.6871 H         1 UNK         0.0680 
     80 H80       -74.9920   31.8336  -72.3438 H         1 UNK         0.0680 
     81 H81       -73.6981   28.5203  -73.5162 H         1 UNK         0.1032 
     82 H82       -73.5884   27.7601  -71.9530 H         1 UNK         0.1032 
     83 H83       -71.1476   28.2953  -71.8615 H         1 UNK         0.0461 
     84 H84       -70.6104   25.6179  -74.7644 H         1 UNK         0.3453 
     85 H85       -70.4179   27.3318  -75.0464 H         1 UNK         0.3453 
     86 H86       -71.6343   29.6646  -74.4054 H         1 UNK         0.2984 
     87 H87       -69.4628   31.6444  -74.2964 H         1 UNK         0.0554 
     88 H88       -67.1778   30.7280  -74.1403 H         1 UNK         0.0847 
     89 H89       -67.4677   31.2867  -75.7778 H         1 UNK         0.0847 
     90 H90       -67.5095   29.5625  -75.4123 H         1 UNK         0.0847 
     91 H91       -70.5527   31.4620  -76.2117 H         1 UNK         0.3141 
     92 H92       -71.7952   30.6254  -77.8008 H         1 UNK         0.0743 
     93 H93       -69.7534   29.0602  -79.4793 H         1 UNK         0.0784 
     94 H94       -71.0252   30.1067  -80.1129 H         1 UNK         0.0784 
     95 H95       -69.7082   30.7906  -79.1747 H         1 UNK         0.0784 
     96 H96       -71.9248   28.0021  -78.9240 H         1 UNK         0.3213 
     97 H97       -73.9813   26.9471  -78.6540 H         1 UNK         0.0855 
     98 H98       -72.9148   25.6591  -76.0711 H         1 UNK         0.0814 
     99 H99       -72.0448   25.6819  -77.6012 H         1 UNK         0.0814 
    100 H100      -73.5598   24.8009  -77.4642 H         1 UNK         0.0814 
    101 H101      -75.0826   27.4181  -75.9555 H         1 UNK         0.3105 
    102 H102      -77.5192   27.6849  -76.0800 H         1 UNK         0.0547 
    103 H103      -78.8046   25.3087  -77.5343 H         1 UNK         0.0837 
    104 H104      -78.9597   27.0043  -77.9742 H         1 UNK         0.0837 
    105 H105      -79.6418   26.4272  -76.4640 H         1 UNK         0.0837 
    106 H106      -77.7984   24.8766  -75.3192 H         1 UNK         0.3020 
    107 H107      -75.4684   24.9669  -72.7062 H         1 UNK         0.1245 
    108 H108      -77.9428   24.2520  -71.5976 H         1 UNK         0.0781 
    109 H109      -78.3230   25.8149  -72.2376 H         1 UNK         0.0781 
    110 H110      -77.3736   27.7555  -69.1267 H         1 UNK         0.0836 
    111 H111      -78.7215   27.0318  -69.9661 H         1 UNK         0.0836 
    112 H112      -77.5418   23.1305  -73.4825 H         1 UNK         0.3022 
    113 H113      -75.8189   21.5561  -76.0419 H         1 UNK         0.0747 
    114 H114      -75.6452   19.4882  -74.6747 H         1 UNK         0.0793 
    115 H115      -74.3688   20.6099  -74.2376 H         1 UNK         0.0793 
    116 H116      -75.7668   20.4304  -73.1872 H         1 UNK         0.0793 
    117 H117      -77.9289   20.5749  -74.4128 H         1 UNK         0.3047 
    118 H118      -80.1072   20.7345  -76.3161 H         1 UNK         0.0822 
    119 H119      -81.3993   20.7748  -74.1275 H         1 UNK         0.0807 
    120 H120      -80.1020   21.7229  -73.4113 H         1 UNK         0.0807 
    121 H121      -79.8013   20.0824  -73.9768 H         1 UNK         0.0807 
    122 H122      -81.4584   22.3817  -76.8439 H         1 UNK         0.2946 
    123 H123      -81.9475   24.8022  -77.1246 H         1 UNK         0.1144 
    124 H124      -83.6232   23.0284  -76.4765 H         1 UNK         0.0793 
    125 H125      -84.3742   24.6092  -76.4390 H         1 UNK         0.0793 
    126 H126      -83.8915   23.8309  -74.9348 H         1 UNK         0.0793 
    127 H127      -81.8165   25.9860  -74.5014 H         1 UNK         0.2896 
@<TRIPOS>BOND
     1    1    2 1    
     2    1   67 1    
     3    1   68 1    
     4    1   69 1    
     5    2    3 2    
     6    2    4 am   BACKBONE|DICT|INTERRES
     7    4    5 1    
     8    4   70 1    
     9    5    6 1    
    10    5   65 1    
    11    5   71 1    
    12    6    7 1    
    13    6   72 1    
    14    6   73 1    
    15    7    8 1    
    16    8    9 1    
    17    8   74 1    
    18    8   75 1    
    19    9   10 ar   
    20    9   14 ar   
    21   10   11 ar   
    22   10   76 1    
    23   11   12 ar   
    24   11   48 1    
    25   12   13 ar   
    26   12   77 1    
    27   13   14 ar   
    28   13   15 1    
    29   14   78 1    
    30   15   16 1    
    31   15   79 1    
    32   15   80 1    
    33   16   17 1    
    34   17   18 1    
    35   17   81 1    
    36   17   82 1    
    37   18   19 1    
    38   18   22 1    
    39   18   83 1    
    40   19   20 am   BACKBONE|DICT|INTERRES
    41   19   21 2    
    42   20   84 1    
    43   20   85 1    
    44   22   23 am   BACKBONE|DICT|INTERRES
    45   22   86 1    
    46   23   24 2    
    47   23   25 1    
    48   25   26 1    
    49   25   27 1    
    50   25   87 1    
    51   26   88 1    
    52   26   89 1    
    53   26   90 1    
    54   27   28 am   BACKBONE|DICT|INTERRES
    55   27   91 1    
    56   28   29 2    
    57   28   30 1    
    58   30   31 1    
    59   30   32 1    
    60   30   92 1    
    61   31   93 1    
    62   31   94 1    
    63   31   95 1    
    64   32   33 am   BACKBONE|DICT|INTERRES
    65   32   96 1    
    66   33   34 2    
    67   33   35 1    
    68   35   36 1    
    69   35   37 1    
    70   35   97 1    
    71   36   98 1    
    72   36   99 1    
    73   36  100 1    
    74   37   38 am   BACKBONE|DICT|INTERRES
    75   37  101 1    
    76   38   39 2    
    77   38   40 1    
    78   40   41 1    
    79   40   42 1    
    80   40  102 1    
    81   41  103 1    
    82   41  104 1    
    83   41  105 1    
    84   42   43 am   BACKBONE|DICT|INTERRES
    85   42  106 1    
    86   43   44 2    
    87   43   45 1    
    88   45   46 1    
    89   45   49 1    
    90   45  107 1    
    91   46   47 1    
    92   46  108 1    
    93   46  109 1    
    94   47   48 1    
    95   48  110 1    
    96   48  111 1    
    97   49   50 am   BACKBONE|DICT|INTERRES
    98   49  112 1    
    99   50   51 2    
   100   50   52 1    
   101   52   53 1    
   102   52   54 1    
   103   52  113 1    
   104   53  114 1    
   105   53  115 1    
   106   53  116 1    
   107   54   55 am   BACKBONE|DICT|INTERRES
   108   54  117 1    
   109   55   56 2    
   110   55   57 1    
   111   57   58 1    
   112   57   59 1    
   113   57  118 1    
   114   58  119 1    
   115   58  120 1    
   116   58  121 1    
   117   59   60 am   BACKBONE|DICT|INTERRES
   118   59  122 1    
   119   60   61 2    
   120   60   62 1    
   121   62   63 1    
   122   62   64 1    
   123   62  123 1    
   124   63  124 1    
   125   63  125 1    
   126   63  126 1    
   127   64   65 am   BACKBONE|DICT|INTERRES
   128   64  127 1    
   129   65   66 2    
@<TRIPOS>SUBSTRUCTURE
     1 UNK         1 GROUP             0       ****    0 ROOT    
