@<TRIPOS>MOLECULE
3R135
127   129    1
SMALL
USER_CHARGES


@<TRIPOS>ATOM
      1 CA        -77.6288   30.2620  -76.1129 C.3       0 UNK        -0.1998 
      2 C         -78.2226   29.1772  -75.2263 C.2       0 UNK         0.4909 
      3 O         -77.5006   28.2749  -74.8074 O.2       0 UNK        -0.5240 
      4 N         -79.5264   29.2735  -74.9358 N.am      1 UNK        -0.4739 
      5 CA        -80.2991   28.2916  -74.1677 C.3       1 UNK         0.0864 
      6 C6        -81.3247   29.0018  -73.2358 C.3       11 UNK        -0.0881 
      7 S7        -81.7798   27.9972  -71.7767 S.3       11 UNK        -0.2682 
      8 C8        -80.8015   28.7709  -70.4451 C.3       11 UNK         0.0289 
      9 C9        -79.3082   28.5890  -70.6707 C.ar      11 UNK        -0.0687 
     10 C10       -78.6926   27.3714  -70.3611 C.ar      11 UNK        -0.0823 
     11 C11       -77.3368   27.1751  -70.6386 C.ar      11 UNK        -0.0830 
     12 C12       -76.5966   28.2143  -71.2106 C.ar      11 UNK        -0.1021 
     13 C13       -77.2003   29.4320  -71.5305 C.ar      11 UNK        -0.0753 
     14 C14       -78.5527   29.6214  -71.2361 C.ar      11 UNK        -0.0933 
     15 C15       -76.4319   30.4913  -72.3079 C.3       11 UNK         0.0166 
     16 S16       -75.3860   31.5611  -71.2694 S.3       11 UNK        -0.2615 
     17 C17       -73.8499   30.5932  -71.0578 C.3       11 UNK        -0.0865 
     18 CA        -72.8160   30.8064  -72.1988 C.3       10 UNK         0.0862 
     19 C         -71.4268   30.2661  -71.7775 C.2       10 UNK         0.5551 
     20 N         -70.5383   31.1311  -71.3093 N.am      10 UNK        -0.7319 
     21 O         -71.1639   29.0660  -71.8350 O.2       10 UNK        -0.5018 
     22 N         -73.2287   30.1332  -73.4362 N.am      10 UNK        -0.4509 
     23 C         -73.4720   30.7215  -74.6123 C.2       10 UNK         0.4899 
     24 O         -73.4338   31.9390  -74.7967 O.2       10 UNK        -0.4839 
     25 CA        -73.8353   29.7726  -75.7727 C.3       9 UNK         0.0222 
     26 CB        -73.8568   30.4691  -77.1492 C.3       9 UNK        -0.1966 
     27 N         -73.0067   28.5624  -75.8120 N.am      9 UNK        -0.4218 
     28 C         -71.6743   28.4808  -75.9594 C.2       9 UNK         0.5020 
     29 O         -70.9301   29.4522  -76.0963 O.2       9 UNK        -0.5274 
     30 CA        -71.0678   27.0687  -75.9604 C.3       8 UNK         0.0270 
     31 CB        -70.8958   26.5575  -74.5200 C.3       8 UNK        -0.1976 
     32 N         -71.9071   26.1321  -76.7111 N.am      8 UNK        -0.4313 
     33 C         -71.6719   25.7201  -77.9647 C.2       8 UNK         0.5041 
     34 O         -70.6693   26.0269  -78.6113 O.2       8 UNK        -0.5577 
     35 CA        -72.7324   24.8111  -78.6184 C.3       7 UNK         0.0284 
     36 CB        -72.3787   23.3312  -78.4018 C.3       7 UNK        -0.1958 
     37 N         -74.0884   25.0612  -78.1232 N.am      7 UNK        -0.4454 
     38 C         -74.7834   26.1856  -78.3550 C.2       7 UNK         0.5089 
     39 O         -74.4057   27.0722  -79.1209 O.2       7 UNK        -0.5125 
     40 CA        -76.1036   26.3821  -77.5844 C.3       6 UNK         0.0408 
     41 CB        -77.3098   26.1377  -78.5034 C.3       6 UNK        -0.1791 
     42 N         -76.2484   25.5561  -76.3820 N.am      6 UNK        -0.4762 
     43 C         -75.4235   25.5573  -75.3224 C.2       6 UNK         0.5007 
     44 O         -74.3942   26.2302  -75.2570 O.2       6 UNK        -0.5032 
     45 CA        -75.7858   24.6314  -74.1435 C.3       5 UNK         0.0783 
     46 C46       -76.7096   25.4257  -73.1943 C.3       11 UNK        -0.0857 
     47 S47       -77.1216   24.5743  -71.6341 S.3       11 UNK        -0.2512 
     48 C48       -76.6761   25.8254  -70.3777 C.3       11 UNK         0.0225 
     49 N         -76.4060   23.3698  -74.5579 N.am      5 UNK        -0.4615 
     50 C         -76.0112   22.5376  -75.5331 C.2       4 UNK         0.5053 
     51 O         -74.9469   22.6485  -76.1433 O.2       4 UNK        -0.5105 
     52 CA        -77.0057   21.4312  -75.9443 C.3       4 UNK         0.0263 
     53 CB        -76.5207   20.0621  -75.4415 C.3       4 UNK        -0.1981 
     54 N         -78.3876   21.6510  -75.4874 N.am      4 UNK        -0.4224 
     55 C         -79.1499   22.7190  -75.7711 C.2       3 UNK         0.4895 
     56 O         -78.7920   23.6394  -76.5126 O.2       3 UNK        -0.5091 
     57 CA        -80.4984   22.8007  -75.0422 C.3       3 UNK         0.0250 
     58 CB        -80.3135   22.7484  -73.5085 C.3       3 UNK        -0.1996 
     59 N         -81.1610   24.0480  -75.4116 N.am      3 UNK        -0.4254 
     60 C         -82.4514   24.3409  -75.2266 C.2       2 UNK         0.5004 
     61 O         -83.2706   23.5490  -74.7559 O.2       2 UNK        -0.5226 
     62 CA        -82.8802   25.7737  -75.5915 C.3       2 UNK         0.0269 
     63 CB        -84.3856   26.0187  -75.3744 C.3       2 UNK        -0.1926 
     64 N         -82.1268   26.7555  -74.8061 N.am      2 UNK        -0.4687 
     65 C         -80.9276   27.2545  -75.1319 C.2       1 UNK         0.5165 
     66 O         -80.3287   26.9142  -76.1549 O.2       1 UNK        -0.5079 
     67 H67       -76.9151   30.8604  -75.5478 H         1 UNK         0.0900 
     68 H68       -78.3939   30.9299  -76.5080 H         1 UNK         0.0900 
     69 H69       -77.1064   29.8118  -76.9565 H         1 UNK         0.0900 
     70 H70       -80.0652   30.0234  -75.3447 H         1 UNK         0.2959 
     71 H71       -79.6050   27.7323  -73.5351 H         1 UNK         0.1079 
     72 H72       -80.9125   29.9451  -72.8761 H         1 UNK         0.0837 
     73 H73       -82.2292   29.2851  -73.7776 H         1 UNK         0.0837 
     74 H74       -81.0835   28.3211  -69.4921 H         1 UNK         0.0685 
     75 H75       -81.0573   29.8290  -70.3707 H         1 UNK         0.0685 
     76 H76       -79.2777   26.5635  -69.9431 H         1 UNK         0.1434 
     77 H77       -75.5621   28.0460  -71.4694 H         1 UNK         0.1329 
     78 H78       -79.0300   30.5555  -71.4979 H         1 UNK         0.1335 
     79 H79       -75.8386   30.0056  -73.0799 H         1 UNK         0.0680 
     80 H80       -77.1342   31.1312  -72.8440 H         1 UNK         0.0680 
     81 H81       -74.0746   29.5368  -70.9237 H         1 UNK         0.1032 
     82 H82       -73.4228   30.9165  -70.1063 H         1 UNK         0.1032 
     83 H83       -72.7163   31.8796  -72.3748 H         1 UNK         0.0461 
     84 H84       -69.6344   30.7940  -71.0167 H         1 UNK         0.3453 
     85 H85       -70.7494   32.1152  -71.2478 H         1 UNK         0.3453 
     86 H86       -73.2066   29.1242  -73.3992 H         1 UNK         0.2984 
     87 H87       -74.8479   29.4236  -75.5677 H         1 UNK         0.0554 
     88 H88       -74.5691   31.2949  -77.1594 H         1 UNK         0.0847 
     89 H89       -74.1529   29.7770  -77.9378 H         1 UNK         0.0847 
     90 H90       -72.8805   30.8782  -77.4107 H         1 UNK         0.0847 
     91 H91       -73.5170   27.6936  -75.6546 H         1 UNK         0.3141 
     92 H92       -70.0765   27.1317  -76.4144 H         1 UNK         0.0743 
     93 H93       -70.2743   27.2386  -73.9366 H         1 UNK         0.0784 
     94 H94       -71.8511   26.4653  -74.0017 H         1 UNK         0.0784 
     95 H95       -70.4108   25.5814  -74.5029 H         1 UNK         0.0784 
     96 H96       -72.7825   25.8646  -76.2719 H         1 UNK         0.3213 
     97 H97       -72.7222   25.0121  -79.6919 H         1 UNK         0.0855 
     98 H98       -72.3821   23.0659  -77.3437 H         1 UNK         0.0814 
     99 H99       -71.3851   23.1062  -78.7919 H         1 UNK         0.0814 
    100 H100      -73.0837   22.6752  -78.9128 H         1 UNK         0.0814 
    101 H101      -74.4780   24.3747  -77.4867 H         1 UNK         0.3105 
    102 H102      -76.1288   27.4242  -77.2601 H         1 UNK         0.0547 
    103 H103      -77.2543   26.7576  -79.3992 H         1 UNK         0.0837 
    104 H104      -77.3656   25.0972  -78.8258 H         1 UNK         0.0837 
    105 H105      -78.2454   26.3815  -77.9991 H         1 UNK         0.0837 
    106 H106      -77.0693   24.9607  -76.3473 H         1 UNK         0.3020 
    107 H107      -74.8582   24.3872  -73.6221 H         1 UNK         0.1245 
    108 H108      -77.6493   25.6797  -73.6902 H         1 UNK         0.0781 
    109 H109      -76.2324   26.3763  -72.9682 H         1 UNK         0.0781 
    110 H110      -76.9710   25.4598  -69.3932 H         1 UNK         0.0836 
    111 H111      -75.5902   25.9291  -70.3496 H         1 UNK         0.0836 
    112 H112      -77.2830   23.1629  -74.1051 H         1 UNK         0.3022 
    113 H113      -77.0230   21.4108  -77.0358 H         1 UNK         0.0747 
    114 H114      -75.5078   19.8543  -75.7899 H         1 UNK         0.0793 
    115 H115      -77.1569   19.2556  -75.8067 H         1 UNK         0.0793 
    116 H116      -76.5062   20.0141  -74.3519 H         1 UNK         0.0793 
    117 H117      -78.7661   20.9441  -74.8730 H         1 UNK         0.3047 
    118 H118      -81.1118   21.9596  -75.3719 H         1 UNK         0.0822 
    119 H119      -81.2699   22.8038  -72.9886 H         1 UNK         0.0807 
    120 H120      -79.6980   23.5750  -73.1510 H         1 UNK         0.0807 
    121 H121      -79.8394   21.8212  -73.1860 H         1 UNK         0.0807 
    122 H122      -80.5534   24.7365  -75.8473 H         1 UNK         0.2946 
    123 H123      -82.6699   25.9140  -76.6546 H         1 UNK         0.1144 
    124 H124      -84.9839   25.3212  -75.9621 H         1 UNK         0.0793 
    125 H125      -84.6711   27.0252  -75.6808 H         1 UNK         0.0793 
    126 H126      -84.6697   25.8934  -74.3287 H         1 UNK         0.0793 
    127 H127      -82.5307   27.0335  -73.9209 H         1 UNK         0.2896 
@<TRIPOS>BOND
     1    1    2 1    
     2    1   67 1    
     3    1   68 1    
     4    1   69 1    
     5    2    3 2    
     6    2    4 am   BACKBONE|DICT|INTERRES
     7    4    5 1    
     8    4   70 1    
     9    5    6 1    
    10    5   65 1    
    11    5   71 1    
    12    6    7 1    
    13    6   72 1    
    14    6   73 1    
    15    7    8 1    
    16    8    9 1    
    17    8   74 1    
    18    8   75 1    
    19    9   10 ar   
    20    9   14 ar   
    21   10   11 ar   
    22   10   76 1    
    23   11   12 ar   
    24   11   48 1    
    25   12   13 ar   
    26   12   77 1    
    27   13   14 ar   
    28   13   15 1    
    29   14   78 1    
    30   15   16 1    
    31   15   79 1    
    32   15   80 1    
    33   16   17 1    
    34   17   18 1    
    35   17   81 1    
    36   17   82 1    
    37   18   19 1    
    38   18   22 1    
    39   18   83 1    
    40   19   20 am   BACKBONE|DICT|INTERRES
    41   19   21 2    
    42   20   84 1    
    43   20   85 1    
    44   22   23 am   BACKBONE|DICT|INTERRES
    45   22   86 1    
    46   23   24 2    
    47   23   25 1    
    48   25   26 1    
    49   25   27 1    
    50   25   87 1    
    51   26   88 1    
    52   26   89 1    
    53   26   90 1    
    54   27   28 am   BACKBONE|DICT|INTERRES
    55   27   91 1    
    56   28   29 2    
    57   28   30 1    
    58   30   31 1    
    59   30   32 1    
    60   30   92 1    
    61   31   93 1    
    62   31   94 1    
    63   31   95 1    
    64   32   33 am   BACKBONE|DICT|INTERRES
    65   32   96 1    
    66   33   34 2    
    67   33   35 1    
    68   35   36 1    
    69   35   37 1    
    70   35   97 1    
    71   36   98 1    
    72   36   99 1    
    73   36  100 1    
    74   37   38 am   BACKBONE|DICT|INTERRES
    75   37  101 1    
    76   38   39 2    
    77   38   40 1    
    78   40   41 1    
    79   40   42 1    
    80   40  102 1    
    81   41  103 1    
    82   41  104 1    
    83   41  105 1    
    84   42   43 am   BACKBONE|DICT|INTERRES
    85   42  106 1    
    86   43   44 2    
    87   43   45 1    
    88   45   46 1    
    89   45   49 1    
    90   45  107 1    
    91   46   47 1    
    92   46  108 1    
    93   46  109 1    
    94   47   48 1    
    95   48  110 1    
    96   48  111 1    
    97   49   50 am   BACKBONE|DICT|INTERRES
    98   49  112 1    
    99   50   51 2    
   100   50   52 1    
   101   52   53 1    
   102   52   54 1    
   103   52  113 1    
   104   53  114 1    
   105   53  115 1    
   106   53  116 1    
   107   54   55 am   BACKBONE|DICT|INTERRES
   108   54  117 1    
   109   55   56 2    
   110   55   57 1    
   111   57   58 1    
   112   57   59 1    
   113   57  118 1    
   114   58  119 1    
   115   58  120 1    
   116   58  121 1    
   117   59   60 am   BACKBONE|DICT|INTERRES
   118   59  122 1    
   119   60   61 2    
   120   60   62 1    
   121   62   63 1    
   122   62   64 1    
   123   62  123 1    
   124   63  124 1    
   125   63  125 1    
   126   63  126 1    
   127   64   65 am   BACKBONE|DICT|INTERRES
   128   64  127 1    
   129   65   66 2    
@<TRIPOS>SUBSTRUCTURE
     1 UNK         1 GROUP             0       ****    0 ROOT    
