@<TRIPOS>MOLECULE
3R135
127   129    1
SMALL
USER_CHARGES


@<TRIPOS>ATOM
      1 CA        -81.1773   25.4339  -72.1085 C.3       0 UNK        -0.1998 
      2 C         -81.3592   25.8811  -73.5511 C.2       0 UNK         0.4909 
      3 O         -82.1612   25.2928  -74.2783 O.2       0 UNK        -0.5240 
      4 N         -80.6258   26.9232  -73.9655 N.am      1 UNK        -0.4739 
      5 CA        -80.6186   27.4878  -75.3200 C.3       1 UNK         0.0864 
      6 C6        -79.7300   28.7546  -75.4364 C.3       11 UNK        -0.0881 
      7 S7        -80.0777   30.0246  -74.1738 S.3       11 UNK        -0.2682 
      8 C8        -78.4148   30.7461  -73.9435 C.3       11 UNK         0.0289 
      9 C9        -77.5629   30.0780  -72.8618 C.ar      11 UNK        -0.0687 
     10 C10       -77.5919   28.6966  -72.6290 C.ar      11 UNK        -0.0823 
     11 C11       -76.8128   28.1217  -71.6210 C.ar      11 UNK        -0.0830 
     12 C12       -75.9766   28.9354  -70.8528 C.ar      11 UNK        -0.1021 
     13 C13       -75.8977   30.3076  -71.1028 C.ar      11 UNK        -0.0753 
     14 C14       -76.7001   30.8718  -72.0986 C.ar      11 UNK        -0.0933 
     15 C15       -74.9526   31.1874  -70.2989 C.3       11 UNK         0.0166 
     16 S16       -73.3553   31.4046  -71.1464 S.3       11 UNK        -0.2615 
     17 C17       -72.4762   29.8803  -70.6584 C.3       11 UNK        -0.0865 
     18 CA        -71.3008   29.5341  -71.6066 C.3       10 UNK         0.0862 
     19 C         -70.4883   28.3360  -71.0410 C.2       10 UNK         0.5551 
     20 N         -69.4575   28.6050  -70.2515 N.am      10 UNK        -0.7319 
     21 O         -70.8117   27.1727  -71.2729 O.2       10 UNK        -0.5018 
     22 N         -71.7738   29.3060  -72.9793 N.am      10 UNK        -0.4509 
     23 C         -70.9924   29.1149  -74.0506 C.2       10 UNK         0.4899 
     24 O         -69.7620   29.1627  -74.0230 O.2       10 UNK        -0.4839 
     25 CA        -71.6974   28.8284  -75.3885 C.3       9 UNK         0.0222 
     26 CB        -71.7311   27.3166  -75.6610 C.3       9 UNK        -0.1966 
     27 N         -73.0619   29.3559  -75.4503 N.am      9 UNK        -0.4218 
     28 C         -73.3925   30.6488  -75.5467 C.2       9 UNK         0.5020 
     29 O         -72.5679   31.5596  -75.6442 O.2       9 UNK        -0.5274 
     30 CA        -74.9022   30.9622  -75.5459 C.3       8 UNK         0.0270 
     31 CB        -75.1987   32.4736  -75.5554 C.3       8 UNK        -0.1976 
     32 N         -75.6171   30.3244  -76.6584 N.am      8 UNK        -0.4313 
     33 C         -75.9182   29.0216  -76.7340 C.2       8 UNK         0.5041 
     34 O         -75.5922   28.2103  -75.8647 O.2       8 UNK        -0.5577 
     35 CA        -76.7515   28.5643  -77.9451 C.3       7 UNK         0.0284 
     36 CB        -76.2581   29.1459  -79.2891 C.3       7 UNK        -0.1958 
     37 N         -76.8837   27.1020  -77.9682 N.am      7 UNK        -0.4454 
     38 C         -76.0074   26.1810  -78.3898 C.2       7 UNK         0.5089 
     39 O         -74.9746   26.4217  -79.0182 O.2       7 UNK        -0.5125 
     40 CA        -76.3627   24.7334  -77.9972 C.3       6 UNK         0.0408 
     41 CB        -75.5851   23.6724  -78.8042 C.3       6 UNK        -0.1791 
     42 N         -76.2067   24.5290  -76.5510 N.am      6 UNK        -0.4762 
     43 C         -75.0732   24.6400  -75.8365 C.2       6 UNK         0.5007 
     44 O         -73.9594   24.8268  -76.3263 O.2       6 UNK        -0.5032 
     45 CA        -75.1905   24.4993  -74.3083 C.3       5 UNK         0.0783 
     46 C46       -75.4041   25.8796  -73.6448 C.3       11 UNK        -0.0857 
     47 S47       -75.3340   25.7845  -71.8251 S.3       11 UNK        -0.2512 
     48 C48       -76.8778   26.6238  -71.3515 C.3       11 UNK         0.0225 
     49 N         -76.2196   23.5305  -73.9240 N.am      5 UNK        -0.4615 
     50 C         -76.0621   22.2038  -73.9426 C.2       4 UNK         0.5053 
     51 O         -75.0433   21.6400  -74.3429 O.2       4 UNK        -0.5105 
     52 CA        -77.2228   21.3579  -73.3900 C.3       4 UNK         0.0263 
     53 CB        -77.5325   21.7092  -71.9189 C.3       4 UNK        -0.1981 
     54 N         -78.4387   21.3846  -74.2131 N.am      4 UNK        -0.4224 
     55 C         -79.2270   22.4303  -74.4962 C.2       3 UNK         0.4895 
     56 O         -79.0182   23.5832  -74.1111 O.2       3 UNK        -0.5091 
     57 CA        -80.4959   22.1107  -75.2988 C.3       3 UNK         0.0250 
     58 CB        -81.6564   21.7754  -74.3478 C.3       3 UNK        -0.1996 
     59 N         -80.8748   23.2531  -76.1264 N.am      3 UNK        -0.4254 
     60 C         -80.4390   23.4591  -77.3766 C.2       2 UNK         0.5004 
     61 O         -79.7378   22.6597  -77.9979 O.2       2 UNK        -0.5226 
     62 CA        -80.8459   24.7801  -78.0573 C.3       2 UNK         0.0269 
     63 CB        -82.0869   24.5716  -78.9401 C.3       2 UNK        -0.1926 
     64 N         -81.1044   25.8686  -77.1099 N.am      2 UNK        -0.4687 
     65 C         -80.1607   26.4312  -76.3446 C.2       1 UNK         0.5165 
     66 O         -78.9669   26.1337  -76.4123 O.2       1 UNK        -0.5079 
     67 H67       -80.7626   24.4266  -72.0807 H         1 UNK         0.0900 
     68 H68       -82.1379   25.4226  -71.5945 H         1 UNK         0.0900 
     69 H69       -80.5052   26.0924  -71.5587 H         1 UNK         0.0900 
     70 H70       -80.0193   27.3859  -73.3070 H         1 UNK         0.2959 
     71 H71       -81.6452   27.7775  -75.5541 H         1 UNK         0.1079 
     72 H72       -78.6726   28.4898  -75.3824 H         1 UNK         0.0837 
     73 H73       -79.8698   29.2174  -76.4151 H         1 UNK         0.0837 
     74 H74       -77.8744   30.7311  -74.8895 H         1 UNK         0.0685 
     75 H75       -78.5553   31.7992  -73.6950 H         1 UNK         0.0685 
     76 H76       -78.2203   28.0583  -73.2265 H         1 UNK         0.1434 
     77 H77       -75.3749   28.4920  -70.0715 H         1 UNK         0.1329 
     78 H78       -76.6434   31.9358  -72.2845 H         1 UNK         0.1335 
     79 H79       -74.7914   30.7736  -69.3021 H         1 UNK         0.0680 
     80 H80       -75.4053   32.1688  -70.1496 H         1 UNK         0.0680 
     81 H81       -73.1772   29.0461  -70.6204 H         1 UNK         0.1032 
     82 H82       -72.1163   30.0213  -69.6371 H         1 UNK         0.1032 
     83 H83       -70.6341   30.3982  -71.6456 H         1 UNK         0.0461 
     84 H84       -69.1901   29.5557  -70.0478 H         1 UNK         0.3453 
     85 H85       -68.9272   27.8417  -69.8609 H         1 UNK         0.3453 
     86 H86       -72.7737   29.2506  -73.0981 H         1 UNK         0.2984 
     87 H87       -71.1147   29.3049  -76.1796 H         1 UNK         0.0554 
     88 H88       -72.1904   27.0948  -76.6250 H         1 UNK         0.0847 
     89 H89       -72.2911   26.7797  -74.8944 H         1 UNK         0.0847 
     90 H90       -70.7233   26.8998  -75.6788 H         1 UNK         0.0847 
     91 H91       -73.8311   28.6869  -75.4432 H         1 UNK         0.3141 
     92 H92       -75.2966   30.5594  -74.6112 H         1 UNK         0.0743 
     93 H93       -74.7184   32.9689  -74.7101 H         1 UNK         0.0784 
     94 H94       -74.8336   32.9519  -76.4651 H         1 UNK         0.0784 
     95 H95       -76.2676   32.6711  -75.4765 H         1 UNK         0.0784 
     96 H96       -75.8860   30.9288  -77.4213 H         1 UNK         0.3213 
     97 H97       -77.7612   28.9411  -77.7800 H         1 UNK         0.0855 
     98 H98       -76.4350   30.2201  -79.3457 H         1 UNK         0.0814 
     99 H99       -76.7812   28.6944  -80.1322 H         1 UNK         0.0814 
    100 H100      -75.1891   28.9863  -79.4346 H         1 UNK         0.0814 
    101 H101      -77.6495   26.7458  -77.3950 H         1 UNK         0.3105 
    102 H102      -77.4220   24.5914  -78.2165 H         1 UNK         0.0547 
    103 H103      -75.7786   23.7827  -79.8716 H         1 UNK         0.0837 
    104 H104      -74.5072   23.7538  -78.6633 H         1 UNK         0.0837 
    105 H105      -75.8853   22.6635  -78.5219 H         1 UNK         0.0837 
    106 H106      -77.0710   24.4155  -76.0369 H         1 UNK         0.3020 
    107 H107      -74.2274   24.1167  -73.9613 H         1 UNK         0.1245 
    108 H108      -76.3540   26.3124  -73.9646 H         1 UNK         0.0781 
    109 H109      -74.6304   26.5816  -73.9604 H         1 UNK         0.0781 
    110 H110      -77.0543   26.4605  -70.2874 H         1 UNK         0.0836 
    111 H111      -77.7172   26.1615  -71.8736 H         1 UNK         0.0836 
    112 H112      -77.1308   23.8927  -73.6614 H         1 UNK         0.3022 
    113 H113      -76.8816   20.3213  -73.4042 H         1 UNK         0.0747 
    114 H114      -78.2658   21.0224  -71.4964 H         1 UNK         0.0793 
    115 H115      -76.6334   21.6398  -71.3052 H         1 UNK         0.0793 
    116 H116      -77.9225   22.7212  -71.8056 H         1 UNK         0.0793 
    117 H117      -78.7008   20.4883  -74.6003 H         1 UNK         0.3047 
    118 H118      -80.3090   21.2434  -75.9360 H         1 UNK         0.0822 
    119 H119      -82.5677   21.5462  -74.9005 H         1 UNK         0.0807 
    120 H120      -81.8760   22.6013  -73.6702 H         1 UNK         0.0807 
    121 H121      -81.4220   20.9047  -73.7340 H         1 UNK         0.0807 
    122 H122      -81.3798   23.9973  -75.6547 H         1 UNK         0.2946 
    123 H123      -80.0148   25.0805  -78.6997 H         1 UNK         0.1144 
    124 H124      -82.3379   25.4769  -79.4932 H         1 UNK         0.0793 
    125 H125      -82.9583   24.2840  -78.3503 H         1 UNK         0.0793 
    126 H126      -81.9153   23.7827  -79.6740 H         1 UNK         0.0793 
    127 H127      -82.0700   26.1319  -76.9705 H         1 UNK         0.2896 
@<TRIPOS>BOND
     1    1    2 1    
     2    1   67 1    
     3    1   68 1    
     4    1   69 1    
     5    2    3 2    
     6    2    4 am   BACKBONE|DICT|INTERRES
     7    4    5 1    
     8    4   70 1    
     9    5    6 1    
    10    5   65 1    
    11    5   71 1    
    12    6    7 1    
    13    6   72 1    
    14    6   73 1    
    15    7    8 1    
    16    8    9 1    
    17    8   74 1    
    18    8   75 1    
    19    9   10 ar   
    20    9   14 ar   
    21   10   11 ar   
    22   10   76 1    
    23   11   12 ar   
    24   11   48 1    
    25   12   13 ar   
    26   12   77 1    
    27   13   14 ar   
    28   13   15 1    
    29   14   78 1    
    30   15   16 1    
    31   15   79 1    
    32   15   80 1    
    33   16   17 1    
    34   17   18 1    
    35   17   81 1    
    36   17   82 1    
    37   18   19 1    
    38   18   22 1    
    39   18   83 1    
    40   19   20 am   BACKBONE|DICT|INTERRES
    41   19   21 2    
    42   20   84 1    
    43   20   85 1    
    44   22   23 am   BACKBONE|DICT|INTERRES
    45   22   86 1    
    46   23   24 2    
    47   23   25 1    
    48   25   26 1    
    49   25   27 1    
    50   25   87 1    
    51   26   88 1    
    52   26   89 1    
    53   26   90 1    
    54   27   28 am   BACKBONE|DICT|INTERRES
    55   27   91 1    
    56   28   29 2    
    57   28   30 1    
    58   30   31 1    
    59   30   32 1    
    60   30   92 1    
    61   31   93 1    
    62   31   94 1    
    63   31   95 1    
    64   32   33 am   BACKBONE|DICT|INTERRES
    65   32   96 1    
    66   33   34 2    
    67   33   35 1    
    68   35   36 1    
    69   35   37 1    
    70   35   97 1    
    71   36   98 1    
    72   36   99 1    
    73   36  100 1    
    74   37   38 am   BACKBONE|DICT|INTERRES
    75   37  101 1    
    76   38   39 2    
    77   38   40 1    
    78   40   41 1    
    79   40   42 1    
    80   40  102 1    
    81   41  103 1    
    82   41  104 1    
    83   41  105 1    
    84   42   43 am   BACKBONE|DICT|INTERRES
    85   42  106 1    
    86   43   44 2    
    87   43   45 1    
    88   45   46 1    
    89   45   49 1    
    90   45  107 1    
    91   46   47 1    
    92   46  108 1    
    93   46  109 1    
    94   47   48 1    
    95   48  110 1    
    96   48  111 1    
    97   49   50 am   BACKBONE|DICT|INTERRES
    98   49  112 1    
    99   50   51 2    
   100   50   52 1    
   101   52   53 1    
   102   52   54 1    
   103   52  113 1    
   104   53  114 1    
   105   53  115 1    
   106   53  116 1    
   107   54   55 am   BACKBONE|DICT|INTERRES
   108   54  117 1    
   109   55   56 2    
   110   55   57 1    
   111   57   58 1    
   112   57   59 1    
   113   57  118 1    
   114   58  119 1    
   115   58  120 1    
   116   58  121 1    
   117   59   60 am   BACKBONE|DICT|INTERRES
   118   59  122 1    
   119   60   61 2    
   120   60   62 1    
   121   62   63 1    
   122   62   64 1    
   123   62  123 1    
   124   63  124 1    
   125   63  125 1    
   126   63  126 1    
   127   64   65 am   BACKBONE|DICT|INTERRES
   128   64  127 1    
   129   65   66 2    
@<TRIPOS>SUBSTRUCTURE
     1 UNK         1 GROUP             0       ****    0 ROOT    
