@<TRIPOS>MOLECULE
3R135
127   129    1
SMALL
USER_CHARGES


@<TRIPOS>ATOM
      1 CA        -84.0126   24.5954  -73.9266 C.3       0 UNK        -0.1998 
      2 C         -83.3063   25.9202  -74.1693 C.2       0 UNK         0.4909 
      3 O         -83.1565   26.3337  -75.3195 O.2       0 UNK        -0.5240 
      4 N         -82.8709   26.5937  -73.0971 N.am      1 UNK        -0.4739 
      5 CA        -82.0954   27.8370  -73.1544 C.3       1 UNK         0.0864 
      6 C6        -82.0557   28.5685  -71.7874 C.3       11 UNK        -0.0881 
      7 S7        -81.5307   27.5327  -70.3738 S.3       11 UNK        -0.2682 
      8 C8        -80.2394   28.5605  -69.6035 C.3       11 UNK         0.0289 
      9 C9        -78.9219   28.4874  -70.3607 C.ar      11 UNK        -0.0687 
     10 C10       -78.0806   27.3832  -70.1898 C.ar      11 UNK        -0.0823 
     11 C11       -76.8602   27.3092  -70.8667 C.ar      11 UNK        -0.0830 
     12 C12       -76.4908   28.3458  -71.7257 C.ar      11 UNK        -0.1021 
     13 C13       -77.3152   29.4599  -71.8992 C.ar      11 UNK        -0.0753 
     14 C14       -78.5310   29.5265  -71.2119 C.ar      11 UNK        -0.0933 
     15 C15       -76.9146   30.5678  -72.8626 C.3       11 UNK         0.0166 
     16 S16       -76.0291   31.9401  -72.0576 S.3       11 UNK        -0.2615 
     17 C17       -74.3828   31.2439  -71.6765 C.3       11 UNK        -0.0865 
     18 CA        -73.3331   31.5043  -72.8008 C.3       10 UNK         0.0862 
     19 C         -71.8588   31.4036  -72.2909 C.2       10 UNK         0.5551 
     20 N         -70.9152   30.8791  -73.0652 N.am      10 UNK        -0.7319 
     21 O         -71.5523   31.8483  -71.1873 O.2       10 UNK        -0.5018 
     22 N         -73.6124   30.7440  -74.0346 N.am      10 UNK        -0.4509 
     23 C         -73.5546   29.4113  -74.1643 C.2       10 UNK         0.4899 
     24 O         -73.3126   28.6431  -73.2320 O.2       10 UNK        -0.4839 
     25 CA        -73.7930   28.8160  -75.5665 C.3       9 UNK         0.0222 
     26 CB        -73.8774   29.8540  -76.7083 C.3       9 UNK        -0.1966 
     27 N         -72.7934   27.7845  -75.8625 N.am      9 UNK        -0.4218 
     28 C         -71.4595   27.9360  -75.8854 C.2       9 UNK         0.5020 
     29 O         -70.8941   29.0273  -75.7856 O.2       9 UNK        -0.5274 
     30 CA        -70.5961   26.6696  -76.0088 C.3       8 UNK         0.0270 
     31 CB        -70.1498   26.1952  -74.6151 C.3       8 UNK        -0.1976 
     32 N         -71.2782   25.5663  -76.6944 N.am      8 UNK        -0.4313 
     33 C         -70.7517   24.8468  -77.6959 C.2       8 UNK         0.5041 
     34 O         -69.6276   25.0409  -78.1618 O.2       8 UNK        -0.5577 
     35 CA        -71.6046   23.7023  -78.2810 C.3       7 UNK         0.0284 
     36 CB        -71.1875   22.3564  -77.6655 C.3       7 UNK        -0.1958 
     37 N         -73.0466   23.8847  -78.0995 N.am      7 UNK        -0.4454 
     38 C         -73.7752   24.8424  -78.6871 C.2       7 UNK         0.5089 
     39 O         -73.3241   25.6231  -79.5257 O.2       7 UNK        -0.5125 
     40 CA        -75.2507   24.9726  -78.2635 C.3       6 UNK         0.0408 
     41 CB        -76.1595   24.3422  -79.3307 C.3       6 UNK        -0.1791 
     42 N         -75.6167   24.4326  -76.9440 N.am      6 UNK        -0.4762 
     43 C         -75.0433   24.7204  -75.7631 C.2       6 UNK         0.5007 
     44 O         -73.9678   25.3131  -75.6640 O.2       6 UNK        -0.5032 
     45 CA        -75.7908   24.2907  -74.4829 C.3       5 UNK         0.0783 
     46 C46       -75.5626   25.2966  -73.3230 C.3       11 UNK        -0.0857 
     47 S47       -76.3136   24.7352  -71.7571 S.3       11 UNK        -0.2512 
     48 C48       -75.9285   26.1254  -70.6493 C.3       11 UNK         0.0225 
     49 N         -77.2190   24.1273  -74.7654 N.am      5 UNK        -0.4615 
     50 C         -77.9329   23.0108  -74.5770 C.2       4 UNK         0.5053 
     51 O         -77.4463   21.9415  -74.2088 O.2       4 UNK        -0.5105 
     52 CA        -79.4491   23.0919  -74.8378 C.3       4 UNK         0.0263 
     53 CB        -80.2198   23.1232  -73.5077 C.3       4 UNK        -0.1981 
     54 N         -79.8245   24.2569  -75.6449 N.am      4 UNK        -0.4224 
     55 C         -79.6357   24.3362  -76.9712 C.2       3 UNK         0.4895 
     56 O         -79.2046   23.4044  -77.6505 O.2       3 UNK        -0.5091 
     57 CA        -79.9394   25.6778  -77.6628 C.3       3 UNK         0.0250 
     58 CB        -81.3142   25.6333  -78.3477 C.3       3 UNK        -0.1996 
     59 N         -79.8750   26.8364  -76.7683 N.am      3 UNK        -0.4254 
     60 C         -78.7591   27.2818  -76.1709 C.2       2 UNK         0.5004 
     61 O         -77.6547   26.7602  -76.3089 O.2       2 UNK        -0.5226 
     62 CA        -78.9020   28.4866  -75.2259 C.3       2 UNK         0.0269 
     63 CB        -78.6682   29.7898  -76.0082 C.3       2 UNK        -0.1926 
     64 N         -80.1948   28.5554  -74.5329 N.am      2 UNK        -0.4687 
     65 C         -80.6906   27.5900  -73.7437 C.2       1 UNK         0.5165 
     66 O         -80.1030   26.5298  -73.5160 O.2       1 UNK        -0.5079 
     67 H67       -85.0680   24.6815  -74.1832 H         1 UNK         0.0900 
     68 H68       -83.5736   23.8164  -74.5495 H         1 UNK         0.0900 
     69 H69       -83.9378   24.2797  -72.8861 H         1 UNK         0.0900 
     70 H70       -82.9788   26.1996  -72.1731 H         1 UNK         0.2959 
     71 H71       -82.6189   28.4960  -73.8512 H         1 UNK         0.1079 
     72 H72       -83.0556   28.9388  -71.5560 H         1 UNK         0.0837 
     73 H73       -81.4312   29.4608  -71.8525 H         1 UNK         0.0837 
     74 H74       -80.5875   29.5916  -69.5227 H         1 UNK         0.0685 
     75 H75       -80.0840   28.2146  -68.5805 H         1 UNK         0.0685 
     76 H76       -78.3776   26.5806  -69.5284 H         1 UNK         0.1434 
     77 H77       -75.5560   28.2808  -72.2589 H         1 UNK         0.1329 
     78 H78       -79.1734   30.3860  -71.3446 H         1 UNK         0.1335 
     79 H79       -77.8144   30.9823  -73.3164 H         1 UNK         0.0680 
     80 H80       -76.3230   30.1677  -73.6850 H         1 UNK         0.0680 
     81 H81       -74.4550   30.1849  -71.4349 H         1 UNK         0.1032 
     82 H82       -74.0719   31.7243  -70.7473 H         1 UNK         0.1032 
     83 H83       -73.4299   32.5514  -73.0902 H         1 UNK         0.0461 
     84 H84       -71.1421   30.4874  -73.9689 H         1 UNK         0.3453 
     85 H85       -69.9679   30.8382  -72.7248 H         1 UNK         0.3453 
     86 H86       -73.7899   31.3011  -74.8575 H         1 UNK         0.2984 
     87 H87       -74.7535   28.3001  -75.5175 H         1 UNK         0.0554 
     88 H88       -74.7168   30.5354  -76.5646 H         1 UNK         0.0847 
     89 H89       -74.0335   29.3619  -77.6684 H         1 UNK         0.0847 
     90 H90       -72.9691   30.4519  -76.7911 H         1 UNK         0.0847 
     91 H91       -73.1691   26.8381  -75.8604 H         1 UNK         0.3141 
     92 H92       -69.7055   26.9632  -76.5684 H         1 UNK         0.0743 
     93 H93       -70.9998   25.8865  -74.0048 H         1 UNK         0.0784 
     94 H94       -69.4621   25.3522  -74.6853 H         1 UNK         0.0784 
     95 H95       -69.6333   26.9914  -74.0770 H         1 UNK         0.0784 
     96 H96       -72.2155   25.3349  -76.3760 H         1 UNK         0.3213 
     97 H97       -71.4044   23.6643  -79.3541 H         1 UNK         0.0855 
     98 H98       -71.3785   22.3263  -76.5920 H         1 UNK         0.0814 
     99 H99       -70.1215   22.1751  -77.8112 H         1 UNK         0.0814 
    100 H100      -71.7209   21.5252  -78.1270 H         1 UNK         0.0814 
    101 H101      -73.5058   23.2911  -77.4241 H         1 UNK         0.3105 
    102 H102      -75.4684   26.0420  -78.2278 H         1 UNK         0.0547 
    103 H103      -75.9243   24.7246  -80.3251 H         1 UNK         0.0837 
    104 H104      -76.0500   23.2576  -79.3637 H         1 UNK         0.0837 
    105 H105      -77.2081   24.5683  -79.1439 H         1 UNK         0.0837 
    106 H106      -76.4907   23.9266  -76.9098 H         1 UNK         0.3020 
    107 H107      -75.3517   23.3338  -74.1927 H         1 UNK         0.1245 
    108 H108      -75.9774   26.2708  -73.5869 H         1 UNK         0.0781 
    109 H109      -74.4972   25.4514  -73.1410 H         1 UNK         0.0781 
    110 H110      -74.8880   26.4262  -70.7838 H         1 UNK         0.0836 
    111 H111      -76.0107   25.7819  -69.6170 H         1 UNK         0.0836 
    112 H112      -77.6851   24.9594  -75.1079 H         1 UNK         0.3022 
    113 H113      -79.7399   22.1869  -75.3755 H         1 UNK         0.0747 
    114 H114      -81.2961   23.1676  -73.6703 H         1 UNK         0.0793 
    115 H115      -80.0179   22.2262  -72.9209 H         1 UNK         0.0793 
    116 H116      -79.9350   23.9793  -72.8950 H         1 UNK         0.0793 
    117 H117      -80.1428   25.0758  -75.1381 H         1 UNK         0.3047 
    118 H118      -79.1819   25.8213  -78.4358 H         1 UNK         0.0822 
    119 H119      -81.5158   26.5528  -78.8975 H         1 UNK         0.0807 
    120 H120      -82.1201   25.4871  -77.6282 H         1 UNK         0.0807 
    121 H121      -81.3660   24.8117  -79.0636 H         1 UNK         0.0807 
    122 H122      -80.7474   27.3062  -76.5695 H         1 UNK         0.2946 
    123 H123      -78.1278   28.3861  -74.4628 H         1 UNK         0.1144 
    124 H124      -77.6665   29.8081  -76.4403 H         1 UNK         0.0793 
    125 H125      -78.7635   30.6695  -75.3737 H         1 UNK         0.0793 
    126 H126      -79.3781   29.8989  -76.8293 H         1 UNK         0.0793 
    127 H127      -80.7396   29.3927  -74.6831 H         1 UNK         0.2896 
@<TRIPOS>BOND
     1    1    2 1    
     2    1   67 1    
     3    1   68 1    
     4    1   69 1    
     5    2    3 2    
     6    2    4 am   BACKBONE|DICT|INTERRES
     7    4    5 1    
     8    4   70 1    
     9    5    6 1    
    10    5   65 1    
    11    5   71 1    
    12    6    7 1    
    13    6   72 1    
    14    6   73 1    
    15    7    8 1    
    16    8    9 1    
    17    8   74 1    
    18    8   75 1    
    19    9   10 ar   
    20    9   14 ar   
    21   10   11 ar   
    22   10   76 1    
    23   11   12 ar   
    24   11   48 1    
    25   12   13 ar   
    26   12   77 1    
    27   13   14 ar   
    28   13   15 1    
    29   14   78 1    
    30   15   16 1    
    31   15   79 1    
    32   15   80 1    
    33   16   17 1    
    34   17   18 1    
    35   17   81 1    
    36   17   82 1    
    37   18   19 1    
    38   18   22 1    
    39   18   83 1    
    40   19   20 am   BACKBONE|DICT|INTERRES
    41   19   21 2    
    42   20   84 1    
    43   20   85 1    
    44   22   23 am   BACKBONE|DICT|INTERRES
    45   22   86 1    
    46   23   24 2    
    47   23   25 1    
    48   25   26 1    
    49   25   27 1    
    50   25   87 1    
    51   26   88 1    
    52   26   89 1    
    53   26   90 1    
    54   27   28 am   BACKBONE|DICT|INTERRES
    55   27   91 1    
    56   28   29 2    
    57   28   30 1    
    58   30   31 1    
    59   30   32 1    
    60   30   92 1    
    61   31   93 1    
    62   31   94 1    
    63   31   95 1    
    64   32   33 am   BACKBONE|DICT|INTERRES
    65   32   96 1    
    66   33   34 2    
    67   33   35 1    
    68   35   36 1    
    69   35   37 1    
    70   35   97 1    
    71   36   98 1    
    72   36   99 1    
    73   36  100 1    
    74   37   38 am   BACKBONE|DICT|INTERRES
    75   37  101 1    
    76   38   39 2    
    77   38   40 1    
    78   40   41 1    
    79   40   42 1    
    80   40  102 1    
    81   41  103 1    
    82   41  104 1    
    83   41  105 1    
    84   42   43 am   BACKBONE|DICT|INTERRES
    85   42  106 1    
    86   43   44 2    
    87   43   45 1    
    88   45   46 1    
    89   45   49 1    
    90   45  107 1    
    91   46   47 1    
    92   46  108 1    
    93   46  109 1    
    94   47   48 1    
    95   48  110 1    
    96   48  111 1    
    97   49   50 am   BACKBONE|DICT|INTERRES
    98   49  112 1    
    99   50   51 2    
   100   50   52 1    
   101   52   53 1    
   102   52   54 1    
   103   52  113 1    
   104   53  114 1    
   105   53  115 1    
   106   53  116 1    
   107   54   55 am   BACKBONE|DICT|INTERRES
   108   54  117 1    
   109   55   56 2    
   110   55   57 1    
   111   57   58 1    
   112   57   59 1    
   113   57  118 1    
   114   58  119 1    
   115   58  120 1    
   116   58  121 1    
   117   59   60 am   BACKBONE|DICT|INTERRES
   118   59  122 1    
   119   60   61 2    
   120   60   62 1    
   121   62   63 1    
   122   62   64 1    
   123   62  123 1    
   124   63  124 1    
   125   63  125 1    
   126   63  126 1    
   127   64   65 am   BACKBONE|DICT|INTERRES
   128   64  127 1    
   129   65   66 2    
@<TRIPOS>SUBSTRUCTURE
     1 UNK         1 GROUP             0       ****    0 ROOT    
