@<TRIPOS>MOLECULE
3R135
127   129    1
SMALL
USER_CHARGES


@<TRIPOS>ATOM
      1 CA        -83.9898   27.4472  -70.8305 C.3       0 UNK        -0.1998 
      2 C         -82.8432   27.4271  -71.8293 C.2       0 UNK         0.4909 
      3 O         -81.8178   26.8003  -71.5628 O.2       0 UNK        -0.5240 
      4 N         -83.0137   28.1100  -72.9707 N.am      1 UNK        -0.4739 
      5 CA        -82.0760   28.2544  -74.0980 C.3       1 UNK         0.0864 
      6 C6        -80.7113   28.8926  -73.7249 C.3       11 UNK        -0.0881 
      7 S7        -80.8844   30.5824  -73.0468 S.3       11 UNK        -0.2682 
      8 C8        -80.5272   30.3582  -71.2711 C.3       11 UNK         0.0289 
      9 C9        -79.0880   29.9295  -71.0287 C.ar      11 UNK        -0.0687 
     10 C10       -78.7934   28.5940  -70.7382 C.ar      11 UNK        -0.0823 
     11 C11       -77.4680   28.1736  -70.6016 C.ar      11 UNK        -0.0830 
     12 C12       -76.4382   29.1122  -70.6945 C.ar      11 UNK        -0.1021 
     13 C13       -76.7202   30.4535  -70.9630 C.ar      11 UNK        -0.0753 
     14 C14       -78.0478   30.8593  -71.1282 C.ar      11 UNK        -0.0933 
     15 C15       -75.5802   31.4457  -71.1114 C.3       11 UNK         0.0166 
     16 S16       -74.9343   31.4259  -72.8143 S.3       11 UNK        -0.2615 
     17 C17       -73.1296   31.5141  -72.5324 C.3       11 UNK        -0.0865 
     18 CA        -72.3803   30.1700  -72.7668 C.3       10 UNK         0.0862 
     19 C         -72.7186   29.0683  -71.7275 C.2       10 UNK         0.5551 
     20 N         -72.4243   29.3051  -70.4562 N.am      10 UNK        -0.7319 
     21 O         -73.2403   28.0036  -72.0554 O.2       10 UNK        -0.5018 
     22 N         -72.5291   29.6660  -74.1348 N.am      10 UNK        -0.4509 
     23 C         -71.8909   30.1341  -75.2112 C.2       10 UNK         0.4899 
     24 O         -71.1391   31.1107  -75.1929 O.2       10 UNK        -0.4839 
     25 CA        -72.1274   29.3602  -76.5210 C.3       9 UNK         0.0222 
     26 CB        -71.1738   29.7755  -77.6611 C.3       9 UNK        -0.1966 
     27 N         -72.1036   27.9088  -76.3136 N.am      9 UNK        -0.4218 
     28 C         -71.0840   27.1521  -75.8788 C.2       9 UNK         0.5020 
     29 O         -69.9585   27.5820  -75.6218 O.2       9 UNK        -0.5274 
     30 CA        -71.3701   25.6507  -75.6897 C.3       8 UNK         0.0270 
     31 CB        -71.7791   25.3657  -74.2354 C.3       8 UNK        -0.1976 
     32 N         -72.4028   25.1398  -76.5971 N.am      8 UNK        -0.4313 
     33 C         -72.2553   25.0285  -77.9257 C.2       8 UNK         0.5041 
     34 O         -71.2007   25.2574  -78.5199 O.2       8 UNK        -0.5577 
     35 CA        -73.4961   24.6150  -78.7340 C.3       7 UNK         0.0284 
     36 CB        -73.6794   23.0891  -78.7056 C.3       7 UNK        -0.1958 
     37 N         -74.7213   25.2739  -78.2724 N.am      7 UNK        -0.4454 
     38 C         -74.9632   26.5903  -78.3631 C.2       7 UNK         0.5089 
     39 O         -74.1988   27.3931  -78.8976 O.2       7 UNK        -0.5125 
     40 CA        -76.2596   27.1097  -77.7156 C.3       6 UNK         0.0408 
     41 CB        -77.4636   26.8962  -78.6455 C.3       6 UNK        -0.1791 
     42 N         -76.5273   26.4998  -76.4116 N.am      6 UNK        -0.4762 
     43 C         -75.7456   26.6372  -75.3293 C.2       6 UNK         0.5007 
     44 O         -74.7318   27.3350  -75.2995 O.2       6 UNK        -0.5032 
     45 CA        -76.1446   25.8202  -74.0870 C.3       5 UNK         0.0783 
     46 C46       -77.2492   26.5584  -73.2975 C.3       11 UNK        -0.0857 
     47 S47       -77.7901   25.6681  -71.7939 S.3       11 UNK        -0.2512 
     48 C48       -77.1344   26.6969  -70.4334 C.3       11 UNK         0.0225 
     49 N         -76.5336   24.4578  -74.4609 N.am      5 UNK        -0.4615 
     50 C         -75.7017   23.5373  -74.9652 C.2       4 UNK         0.5053 
     51 O         -74.4994   23.7262  -75.1461 O.2       4 UNK        -0.5105 
     52 CA        -76.3283   22.1954  -75.3793 C.3       4 UNK         0.0263 
     53 CB        -76.5031   21.2796  -74.1576 C.3       4 UNK        -0.1981 
     54 N         -77.6160   22.3622  -76.0586 N.am      4 UNK        -0.4224 
     55 C         -77.7733   22.9708  -77.2435 C.2       3 UNK         0.4895 
     56 O         -76.8409   23.4016  -77.9192 O.2       3 UNK        -0.5091 
     57 CA        -79.2139   23.1767  -77.7412 C.3       3 UNK         0.0250 
     58 CB        -79.6789   21.9627  -78.5607 C.3       3 UNK        -0.1996 
     59 N         -80.1769   23.4453  -76.6679 N.am      3 UNK        -0.4254 
     60 C         -80.1164   24.4874  -75.8266 C.2       2 UNK         0.5004 
     61 O         -79.2162   25.3311  -75.8441 O.2       2 UNK        -0.5226 
     62 CA        -81.2137   24.5415  -74.7499 C.3       2 UNK         0.0269 
     63 CB        -80.8606   23.6014  -73.5851 C.3       2 UNK        -0.1926 
     64 N         -81.4324   25.8843  -74.2106 N.am      2 UNK        -0.4687 
     65 C         -81.8941   26.9413  -74.8894 C.2       1 UNK         0.5165 
     66 O         -82.2125   26.9029  -76.0793 O.2       1 UNK        -0.5079 
     67 H67       -83.6526   27.8671  -69.8833 H         1 UNK         0.0900 
     68 H68       -84.3441   26.4332  -70.6470 H         1 UNK         0.0900 
     69 H69       -84.8311   28.0423  -71.1850 H         1 UNK         0.0900 
     70 H70       -83.8966   28.5816  -73.1114 H         1 UNK         0.2959 
     71 H71       -82.5665   28.9441  -74.7875 H         1 UNK         0.1079 
     72 H72       -80.1618   28.2557  -73.0336 H         1 UNK         0.0837 
     73 H73       -80.0794   28.9696  -74.6119 H         1 UNK         0.0837 
     74 H74       -80.7144   31.3004  -70.7541 H         1 UNK         0.0685 
     75 H75       -81.2236   29.6360  -70.8450 H         1 UNK         0.0685 
     76 H76       -79.5910   27.8660  -70.6776 H         1 UNK         0.1434 
     77 H77       -75.4103   28.7930  -70.5974 H         1 UNK         0.1329 
     78 H78       -78.2709   31.8913  -71.3625 H         1 UNK         0.1335 
     79 H79       -74.7950   31.1956  -70.3967 H         1 UNK         0.0680 
     80 H80       -75.9120   32.4550  -70.8633 H         1 UNK         0.0680 
     81 H81       -72.9217   31.9035  -71.5350 H         1 UNK         0.1032 
     82 H82       -72.7312   32.2691  -73.2114 H         1 UNK         0.1032 
     83 H83       -71.3145   30.3623  -72.6273 H         1 UNK         0.0461 
     84 H84       -71.9761   30.1613  -70.1709 H         1 UNK         0.3453 
     85 H85       -72.6281   28.5963  -69.7697 H         1 UNK         0.3453 
     86 H86       -73.1204   28.8466  -74.2190 H         1 UNK         0.2984 
     87 H87       -73.1432   29.6005  -76.8382 H         1 UNK         0.0554 
     88 H88       -71.3827   29.2157  -78.5729 H         1 UNK         0.0847 
     89 H89       -70.1286   29.6113  -77.3976 H         1 UNK         0.0847 
     90 H90       -71.2865   30.8342  -77.8975 H         1 UNK         0.0847 
     91 H91       -73.0075   27.4554  -76.3970 H         1 UNK         0.3141 
     92 H92       -70.4440   25.1101  -75.8960 H         1 UNK         0.0743 
     93 H93       -72.7124   25.8655  -73.9735 H         1 UNK         0.0784 
     94 H94       -71.9115   24.2977  -74.0618 H         1 UNK         0.0784 
     95 H95       -71.0170   25.7165  -73.5382 H         1 UNK         0.0784 
     96 H96       -73.2790   24.8437  -76.1736 H         1 UNK         0.3213 
     97 H97       -73.3293   24.9163  -79.7704 H         1 UNK         0.0855 
     98 H98       -73.8871   22.7252  -77.6990 H         1 UNK         0.0814 
     99 H99       -72.7810   22.5810  -79.0584 H         1 UNK         0.0814 
    100 H100      -74.5018   22.7772  -79.3496 H         1 UNK         0.0814 
    101 H101      -75.4473   24.6709  -77.8914 H         1 UNK         0.3105 
    102 H102      -76.1439   28.1837  -77.5556 H         1 UNK         0.0547 
    103 H103      -77.3165   27.4117  -79.5953 H         1 UNK         0.0837 
    104 H104      -77.6196   25.8415  -78.8701 H         1 UNK         0.0837 
    105 H105      -78.3817   27.2837  -78.2035 H         1 UNK         0.0837 
    106 H106      -77.3708   25.9383  -76.3266 H         1 UNK         0.3020 
    107 H107      -75.2603   25.7517  -73.4486 H         1 UNK         0.1245 
    108 H108      -78.1341   26.7095  -73.9175 H         1 UNK         0.0781 
    109 H109      -76.9021   27.5596  -73.0424 H         1 UNK         0.0781 
    110 H110      -76.0549   26.5474  -70.3774 H         1 UNK         0.0836 
    111 H111      -77.5453   26.3413  -69.4878 H         1 UNK         0.0836 
    112 H112      -77.5168   24.2442  -74.3834 H         1 UNK         0.3022 
    113 H113      -75.6417   21.7096  -76.0759 H         1 UNK         0.0747 
    114 H114      -76.8717   20.2958  -74.4487 H         1 UNK         0.0793 
    115 H115      -75.5514   21.1286  -73.6459 H         1 UNK         0.0793 
    116 H116      -77.2004   21.6991  -73.4311 H         1 UNK         0.0793 
    117 H117      -78.4380   22.0307  -75.5762 H         1 UNK         0.3047 
    118 H118      -79.2092   24.0482  -78.3987 H         1 UNK         0.0822 
    119 H119      -80.6594   22.1351  -79.0051 H         1 UNK         0.0807 
    120 H120      -79.7394   21.0603  -77.9510 H         1 UNK         0.0807 
    121 H121      -78.9871   21.7571  -79.3790 H         1 UNK         0.0807 
    122 H122      -80.9412   22.7909  -76.5775 H         1 UNK         0.2946 
    123 H123      -82.1522   24.2123  -75.2014 H         1 UNK         0.1144 
    124 H124      -79.9291   23.8951  -73.1000 H         1 UNK         0.0793 
    125 H125      -80.7420   22.5720  -73.9257 H         1 UNK         0.0793 
    126 H126      -81.6436   23.6000  -72.8264 H         1 UNK         0.0793 
    127 H127      -81.2518   26.0204  -73.2195 H         1 UNK         0.2896 
@<TRIPOS>BOND
     1    1    2 1    
     2    1   67 1    
     3    1   68 1    
     4    1   69 1    
     5    2    3 2    
     6    2    4 am   BACKBONE|DICT|INTERRES
     7    4    5 1    
     8    4   70 1    
     9    5    6 1    
    10    5   65 1    
    11    5   71 1    
    12    6    7 1    
    13    6   72 1    
    14    6   73 1    
    15    7    8 1    
    16    8    9 1    
    17    8   74 1    
    18    8   75 1    
    19    9   10 ar   
    20    9   14 ar   
    21   10   11 ar   
    22   10   76 1    
    23   11   12 ar   
    24   11   48 1    
    25   12   13 ar   
    26   12   77 1    
    27   13   14 ar   
    28   13   15 1    
    29   14   78 1    
    30   15   16 1    
    31   15   79 1    
    32   15   80 1    
    33   16   17 1    
    34   17   18 1    
    35   17   81 1    
    36   17   82 1    
    37   18   19 1    
    38   18   22 1    
    39   18   83 1    
    40   19   20 am   BACKBONE|DICT|INTERRES
    41   19   21 2    
    42   20   84 1    
    43   20   85 1    
    44   22   23 am   BACKBONE|DICT|INTERRES
    45   22   86 1    
    46   23   24 2    
    47   23   25 1    
    48   25   26 1    
    49   25   27 1    
    50   25   87 1    
    51   26   88 1    
    52   26   89 1    
    53   26   90 1    
    54   27   28 am   BACKBONE|DICT|INTERRES
    55   27   91 1    
    56   28   29 2    
    57   28   30 1    
    58   30   31 1    
    59   30   32 1    
    60   30   92 1    
    61   31   93 1    
    62   31   94 1    
    63   31   95 1    
    64   32   33 am   BACKBONE|DICT|INTERRES
    65   32   96 1    
    66   33   34 2    
    67   33   35 1    
    68   35   36 1    
    69   35   37 1    
    70   35   97 1    
    71   36   98 1    
    72   36   99 1    
    73   36  100 1    
    74   37   38 am   BACKBONE|DICT|INTERRES
    75   37  101 1    
    76   38   39 2    
    77   38   40 1    
    78   40   41 1    
    79   40   42 1    
    80   40  102 1    
    81   41  103 1    
    82   41  104 1    
    83   41  105 1    
    84   42   43 am   BACKBONE|DICT|INTERRES
    85   42  106 1    
    86   43   44 2    
    87   43   45 1    
    88   45   46 1    
    89   45   49 1    
    90   45  107 1    
    91   46   47 1    
    92   46  108 1    
    93   46  109 1    
    94   47   48 1    
    95   48  110 1    
    96   48  111 1    
    97   49   50 am   BACKBONE|DICT|INTERRES
    98   49  112 1    
    99   50   51 2    
   100   50   52 1    
   101   52   53 1    
   102   52   54 1    
   103   52  113 1    
   104   53  114 1    
   105   53  115 1    
   106   53  116 1    
   107   54   55 am   BACKBONE|DICT|INTERRES
   108   54  117 1    
   109   55   56 2    
   110   55   57 1    
   111   57   58 1    
   112   57   59 1    
   113   57  118 1    
   114   58  119 1    
   115   58  120 1    
   116   58  121 1    
   117   59   60 am   BACKBONE|DICT|INTERRES
   118   59  122 1    
   119   60   61 2    
   120   60   62 1    
   121   62   63 1    
   122   62   64 1    
   123   62  123 1    
   124   63  124 1    
   125   63  125 1    
   126   63  126 1    
   127   64   65 am   BACKBONE|DICT|INTERRES
   128   64  127 1    
   129   65   66 2    
@<TRIPOS>SUBSTRUCTURE
     1 UNK         1 GROUP             0       ****    0 ROOT    
