@<TRIPOS>MOLECULE
3R135
127   129    1
SMALL
USER_CHARGES


@<TRIPOS>ATOM
      1 CA        -79.1569   29.5234  -71.2435 C.3       0 UNK        -0.1998 
      2 C         -80.2307   29.4814  -72.3193 C.2       0 UNK         0.4909 
      3 O         -81.2970   30.0709  -72.1425 O.2       0 UNK        -0.5240 
      4 N         -79.9613   28.7855  -73.4317 N.am      1 UNK        -0.4739 
      5 CA        -80.8698   28.6625  -74.5827 C.3       1 UNK         0.0864 
      6 C6        -80.1261   28.2487  -75.8773 C.3       11 UNK        -0.0881 
      7 S7        -78.7418   29.3666  -76.2897 S.3       11 UNK        -0.2682 
      8 C8        -77.3093   28.2474  -76.1859 C.3       11 UNK         0.0289 
      9 C9        -76.9477   27.8963  -74.7495 C.ar      11 UNK        -0.0687 
     10 C10       -77.4180   26.7134  -74.1735 C.ar      11 UNK        -0.0823 
     11 C11       -77.0316   26.3456  -72.8804 C.ar      11 UNK        -0.0830 
     12 C12       -76.1800   27.1842  -72.1552 C.ar      11 UNK        -0.1021 
     13 C13       -75.7230   28.3828  -72.7116 C.ar      11 UNK        -0.0753 
     14 C14       -76.1090   28.7335  -74.0089 C.ar      11 UNK        -0.0933 
     15 C15       -74.8050   29.2971  -71.9180 C.3       11 UNK         0.0166 
     16 S16       -73.0769   29.0587  -72.4204 S.3       11 UNK        -0.2615 
     17 C17       -72.2228   30.2956  -71.3853 C.3       11 UNK        -0.0865 
     18 CA        -72.3955   31.7623  -71.8677 C.3       10 UNK         0.0862 
     19 C         -71.5682   32.7326  -70.9740 C.2       10 UNK         0.5551 
     20 N         -70.5678   33.4306  -71.4975 N.am      10 UNK        -0.7319 
     21 O         -71.8436   32.8530  -69.7828 O.2       10 UNK        -0.5018 
     22 N         -72.1763   31.9000  -73.3173 N.am      10 UNK        -0.4509 
     23 C         -72.5754   32.9315  -74.0686 C.2       10 UNK         0.4899 
     24 O         -73.1433   33.9271  -73.6193 O.2       10 UNK        -0.4839 
     25 CA        -72.3280   32.8343  -75.5847 C.3       9 UNK         0.0222 
     26 CB        -70.8586   33.1436  -75.9349 C.3       9 UNK        -0.1966 
     27 N         -72.7882   31.5757  -76.1935 N.am      9 UNK        -0.4218 
     28 C         -72.3010   30.3371  -76.0345 C.2       9 UNK         0.5020 
     29 O         -71.3304   30.0541  -75.3254 O.2       9 UNK        -0.5274 
     30 CA        -73.0185   29.2279  -76.8109 C.3       8 UNK         0.0270 
     31 CB        -72.6215   29.2533  -78.3005 C.3       8 UNK        -0.1976 
     32 N         -72.6681   27.9430  -76.2137 N.am      8 UNK        -0.4313 
     33 C         -73.3301   26.7960  -76.3860 C.2       8 UNK         0.5041 
     34 O         -74.3393   26.6794  -77.0879 O.2       8 UNK        -0.5577 
     35 CA        -72.7725   25.5688  -75.6548 C.3       7 UNK         0.0284 
     36 CB        -73.2097   25.5550  -74.1795 C.3       7 UNK        -0.1958 
     37 N         -73.2845   24.3756  -76.3183 N.am      7 UNK        -0.4454 
     38 C         -72.6461   23.2091  -76.4628 C.2       7 UNK         0.5089 
     39 O         -71.5084   22.9907  -76.0422 O.2       7 UNK        -0.5125 
     40 CA        -73.4405   22.1022  -77.1872 C.3       6 UNK         0.0408 
     41 CB        -72.7531   20.7207  -77.1450 C.3       6 UNK        -0.1791 
     42 N         -74.8230   22.0392  -76.6965 N.am      6 UNK        -0.4762 
     43 C         -75.2345   21.7493  -75.4536 C.2       6 UNK         0.5007 
     44 O         -74.5052   21.2672  -74.5864 O.2       6 UNK        -0.5032 
     45 CA        -76.7020   22.0767  -75.0980 C.3       5 UNK         0.0783 
     46 C46       -76.8235   23.5071  -74.5098 C.3       11 UNK        -0.0857 
     47 S47       -76.4593   23.6318  -72.7302 S.3       11 UNK        -0.2512 
     48 C48       -77.5239   25.0395  -72.2694 C.3       11 UNK         0.0225 
     49 N         -77.6873   21.8673  -76.1720 N.am      5 UNK        -0.4615 
     50 C         -77.8492   22.5892  -77.2925 C.2       4 UNK         0.5053 
     51 O         -77.0114   23.3704  -77.7427 O.2       4 UNK        -0.5105 
     52 CA        -79.2177   22.4692  -77.9861 C.3       4 UNK         0.0263 
     53 CB        -79.2719   21.2183  -78.8778 C.3       4 UNK        -0.1981 
     54 N         -80.3330   22.4514  -77.0292 N.am      4 UNK        -0.4224 
     55 C         -80.6134   23.4356  -76.1599 C.2       3 UNK         0.4895 
     56 O         -80.0155   24.5154  -76.1193 O.2       3 UNK        -0.5091 
     57 CA        -81.7209   23.1479  -75.1379 C.3       3 UNK         0.0250 
     58 CB        -81.3312   21.9811  -74.2065 C.3       3 UNK        -0.1996 
     59 N         -81.9439   24.3532  -74.3448 N.am      3 UNK        -0.4254 
     60 C         -83.0402   24.6490  -73.6393 C.2       2 UNK         0.5004 
     61 O         -84.0349   23.9242  -73.5882 O.2       2 UNK        -0.5226 
     62 CA        -83.0266   25.9614  -72.8338 C.3       2 UNK         0.0269 
     63 CB        -82.8485   25.6652  -71.3352 C.3       2 UNK        -0.1926 
     64 N         -81.9809   26.9012  -73.2523 N.am      2 UNK        -0.4687 
     65 C         -82.0596   27.7113  -74.3182 C.2       1 UNK         0.5165 
     66 O         -83.0253   27.7272  -75.0826 O.2       1 UNK        -0.5079 
     67 H67       -79.5803   29.2510  -70.2772 H         1 UNK         0.0900 
     68 H68       -78.7430   30.5282  -71.1651 H         1 UNK         0.0900 
     69 H69       -78.3415   28.8356  -71.4586 H         1 UNK         0.0900 
     70 H70       -79.0511   28.3588  -73.5465 H         1 UNK         0.2959 
     71 H71       -81.3066   29.6481  -74.7600 H         1 UNK         0.1079 
     72 H72       -79.7684   27.2213  -75.8081 H         1 UNK         0.0837 
     73 H73       -80.8138   28.2615  -76.7252 H         1 UNK         0.0837 
     74 H74       -77.5040   27.3426  -76.7645 H         1 UNK         0.0685 
     75 H75       -76.4565   28.7279  -76.6667 H         1 UNK         0.0685 
     76 H76       -78.0665   26.0671  -74.7472 H         1 UNK         0.1434 
     77 H77       -75.8702   26.9029  -71.1580 H         1 UNK         0.1329 
     78 H78       -75.7410   29.6505  -74.4481 H         1 UNK         0.1335 
     79 H79       -75.0959   30.3356  -72.0810 H         1 UNK         0.0680 
     80 H80       -74.9038   29.1079  -70.8479 H         1 UNK         0.0680 
     81 H81       -71.1640   30.0299  -71.3735 H         1 UNK         0.1032 
     82 H82       -72.5688   30.1878  -70.3554 H         1 UNK         0.1032 
     83 H83       -73.4380   32.0332  -71.6923 H         1 UNK         0.0461 
     84 H84       -70.3404   33.3359  -72.4740 H         1 UNK         0.3453 
     85 H85       -70.0400   34.0581  -70.9115 H         1 UNK         0.3453 
     86 H86       -71.7384   31.1130  -73.7887 H         1 UNK         0.2984 
     87 H87       -72.9357   33.6139  -76.0472 H         1 UNK         0.0554 
     88 H88       -70.7000   33.1428  -77.0132 H         1 UNK         0.0847 
     89 H89       -70.1685   32.4231  -75.4953 H         1 UNK         0.0847 
     90 H90       -70.5718   34.1295  -75.5669 H         1 UNK         0.0847 
     91 H91       -73.6001   31.6758  -76.7877 H         1 UNK         0.3141 
     92 H92       -74.0949   29.3795  -76.7116 H         1 UNK         0.0743 
     93 H93       -71.5517   29.0859  -78.4326 H         1 UNK         0.0784 
     94 H94       -73.1515   28.4886  -78.8685 H         1 UNK         0.0784 
     95 H95       -72.8609   30.2138  -78.7582 H         1 UNK         0.0784 
     96 H96       -71.8792   27.9950  -75.5786 H         1 UNK         0.3213 
     97 H97       -71.6823   25.5878  -75.7192 H         1 UNK         0.0855 
     98 H98       -72.8973   24.6393  -73.6774 H         1 UNK         0.0814 
     99 H99       -74.2930   25.6370  -74.0799 H         1 UNK         0.0814 
    100 H100      -72.7696   26.3889  -73.6339 H         1 UNK         0.0814 
    101 H101      -74.1849   24.5119  -76.7626 H         1 UNK         0.3105 
    102 H102      -73.5030   22.4045  -78.2336 H         1 UNK         0.0547 
    103 H103      -72.5778   20.3803  -76.1243 H         1 UNK         0.0837 
    104 H104      -73.3501   19.9643  -77.6540 H         1 UNK         0.0837 
    105 H105      -71.7830   20.7565  -77.6418 H         1 UNK         0.0837 
    106 H106      -75.5248   22.4647  -77.3008 H         1 UNK         0.3020 
    107 H107      -76.9873   21.3661  -74.3199 H         1 UNK         0.1245 
    108 H108      -76.2095   24.2240  -75.0593 H         1 UNK         0.0781 
    109 H109      -77.8518   23.8453  -74.6326 H         1 UNK         0.0781 
    110 H110      -78.5533   24.8419  -72.5730 H         1 UNK         0.0836 
    111 H111      -77.5430   25.1215  -71.1816 H         1 UNK         0.0836 
    112 H112      -78.4196   21.2106  -75.9440 H         1 UNK         0.3022 
    113 H113      -79.3424   23.3488  -78.6213 H         1 UNK         0.0747 
    114 H114      -80.2044   21.1731  -79.4408 H         1 UNK         0.0793 
    115 H115      -78.4578   21.2228  -79.6042 H         1 UNK         0.0793 
    116 H116      -79.1852   20.2992  -78.2970 H         1 UNK         0.0793 
    117 H117      -80.8882   21.6081  -77.0001 H         1 UNK         0.3047 
    118 H118      -82.6343   22.9021  -75.6838 H         1 UNK         0.0822 
    119 H119      -82.1043   21.7907  -73.4618 H         1 UNK         0.0807 
    120 H120      -80.4013   22.1867  -73.6741 H         1 UNK         0.0807 
    121 H121      -81.1935   21.0530  -74.7618 H         1 UNK         0.0807 
    122 H122      -81.1936   25.0298  -74.4031 H         1 UNK         0.2946 
    123 H123      -84.0008   26.4356  -72.9758 H         1 UNK         0.1144 
    124 H124      -82.9051   26.5775  -70.7408 H         1 UNK         0.0793 
    125 H125      -81.8901   25.1871  -71.1285 H         1 UNK         0.0793 
    126 H126      -83.6308   24.9964  -70.9730 H         1 UNK         0.0793 
    127 H127      -81.1584   26.9638  -72.6701 H         1 UNK         0.2896 
@<TRIPOS>BOND
     1    1    2 1    
     2    1   67 1    
     3    1   68 1    
     4    1   69 1    
     5    2    3 2    
     6    2    4 am   BACKBONE|DICT|INTERRES
     7    4    5 1    
     8    4   70 1    
     9    5    6 1    
    10    5   65 1    
    11    5   71 1    
    12    6    7 1    
    13    6   72 1    
    14    6   73 1    
    15    7    8 1    
    16    8    9 1    
    17    8   74 1    
    18    8   75 1    
    19    9   10 ar   
    20    9   14 ar   
    21   10   11 ar   
    22   10   76 1    
    23   11   12 ar   
    24   11   48 1    
    25   12   13 ar   
    26   12   77 1    
    27   13   14 ar   
    28   13   15 1    
    29   14   78 1    
    30   15   16 1    
    31   15   79 1    
    32   15   80 1    
    33   16   17 1    
    34   17   18 1    
    35   17   81 1    
    36   17   82 1    
    37   18   19 1    
    38   18   22 1    
    39   18   83 1    
    40   19   20 am   BACKBONE|DICT|INTERRES
    41   19   21 2    
    42   20   84 1    
    43   20   85 1    
    44   22   23 am   BACKBONE|DICT|INTERRES
    45   22   86 1    
    46   23   24 2    
    47   23   25 1    
    48   25   26 1    
    49   25   27 1    
    50   25   87 1    
    51   26   88 1    
    52   26   89 1    
    53   26   90 1    
    54   27   28 am   BACKBONE|DICT|INTERRES
    55   27   91 1    
    56   28   29 2    
    57   28   30 1    
    58   30   31 1    
    59   30   32 1    
    60   30   92 1    
    61   31   93 1    
    62   31   94 1    
    63   31   95 1    
    64   32   33 am   BACKBONE|DICT|INTERRES
    65   32   96 1    
    66   33   34 2    
    67   33   35 1    
    68   35   36 1    
    69   35   37 1    
    70   35   97 1    
    71   36   98 1    
    72   36   99 1    
    73   36  100 1    
    74   37   38 am   BACKBONE|DICT|INTERRES
    75   37  101 1    
    76   38   39 2    
    77   38   40 1    
    78   40   41 1    
    79   40   42 1    
    80   40  102 1    
    81   41  103 1    
    82   41  104 1    
    83   41  105 1    
    84   42   43 am   BACKBONE|DICT|INTERRES
    85   42  106 1    
    86   43   44 2    
    87   43   45 1    
    88   45   46 1    
    89   45   49 1    
    90   45  107 1    
    91   46   47 1    
    92   46  108 1    
    93   46  109 1    
    94   47   48 1    
    95   48  110 1    
    96   48  111 1    
    97   49   50 am   BACKBONE|DICT|INTERRES
    98   49  112 1    
    99   50   51 2    
   100   50   52 1    
   101   52   53 1    
   102   52   54 1    
   103   52  113 1    
   104   53  114 1    
   105   53  115 1    
   106   53  116 1    
   107   54   55 am   BACKBONE|DICT|INTERRES
   108   54  117 1    
   109   55   56 2    
   110   55   57 1    
   111   57   58 1    
   112   57   59 1    
   113   57  118 1    
   114   58  119 1    
   115   58  120 1    
   116   58  121 1    
   117   59   60 am   BACKBONE|DICT|INTERRES
   118   59  122 1    
   119   60   61 2    
   120   60   62 1    
   121   62   63 1    
   122   62   64 1    
   123   62  123 1    
   124   63  124 1    
   125   63  125 1    
   126   63  126 1    
   127   64   65 am   BACKBONE|DICT|INTERRES
   128   64  127 1    
   129   65   66 2    
@<TRIPOS>SUBSTRUCTURE
     1 UNK         1 GROUP             0       ****    0 ROOT    
