@<TRIPOS>MOLECULE
3R135
127   129    1
SMALL
USER_CHARGES


@<TRIPOS>ATOM
      1 CA        -82.0356   22.3429  -72.2889 C.3       0 UNK        -0.1998 
      2 C         -81.5988   23.7447  -72.6854 C.2       0 UNK         0.4909 
      3 O         -80.5007   23.9005  -73.2176 O.2       0 UNK        -0.5240 
      4 N         -82.4647   24.7419  -72.4422 N.am      1 UNK        -0.4739 
      5 CA        -82.2980   26.1876  -72.6778 C.3       1 UNK         0.0864 
      6 C6        -81.7097   26.9595  -71.4625 C.3       11 UNK        -0.0881 
      7 S7        -80.0321   26.4786  -70.9221 S.3       11 UNK        -0.2682 
      8 C8        -79.5563   27.9414  -69.9448 C.3       11 UNK         0.0289 
      9 C9        -78.5668   28.8573  -70.6605 C.ar      11 UNK        -0.0687 
     10 C10       -78.8652   29.4218  -71.9071 C.ar      11 UNK        -0.0823 
     11 C11       -77.9742   30.3117  -72.5197 C.ar      11 UNK        -0.0830 
     12 C12       -76.7738   30.6310  -71.8781 C.ar      11 UNK        -0.1021 
     13 C13       -76.4624   30.0734  -70.6345 C.ar      11 UNK        -0.0753 
     14 C14       -77.3619   29.1893  -70.0334 C.ar      11 UNK        -0.0933 
     15 C15       -75.1733   30.4552  -69.9194 C.3       11 UNK         0.0166 
     16 S16       -74.0264   29.0509  -69.7440 S.3       11 UNK        -0.2615 
     17 C17       -73.5609   28.7405  -71.4794 C.3       11 UNK        -0.0865 
     18 CA        -72.3522   29.5960  -71.9388 C.3       10 UNK         0.0862 
     19 C         -71.0064   29.0326  -71.4008 C.2       10 UNK         0.5551 
     20 N         -70.4745   29.6030  -70.3287 N.am      10 UNK        -0.7319 
     21 O         -70.4621   28.0654  -71.9303 O.2       10 UNK        -0.5018 
     22 N         -72.3593   29.7117  -73.3990 N.am      10 UNK        -0.4509 
     23 C         -71.5545   30.4759  -74.1422 C.2       10 UNK         0.4899 
     24 O         -70.7661   31.3010  -73.6775 O.2       10 UNK        -0.4839 
     25 CA        -71.6440   30.2502  -75.6664 C.3       9 UNK         0.0222 
     26 CB        -70.7443   31.2143  -76.4625 C.3       9 UNK        -0.1966 
     27 N         -71.3095   28.8689  -76.0355 N.am      9 UNK        -0.4218 
     28 C         -72.0962   27.8013  -75.8441 C.2       9 UNK         0.5020 
     29 O         -73.2164   27.8608  -75.3344 O.2       9 UNK        -0.5274 
     30 CA        -71.5069   26.4401  -76.2172 C.3       8 UNK         0.0270 
     31 CB        -70.7425   25.8367  -75.0243 C.3       8 UNK        -0.1976 
     32 N         -72.5820   25.5386  -76.6256 N.am      8 UNK        -0.4313 
     33 C         -72.4265   24.5122  -77.4704 C.2       8 UNK         0.5041 
     34 O         -71.3441   24.1956  -77.9679 O.2       8 UNK        -0.5577 
     35 CA        -73.6772   23.6972  -77.8386 C.3       7 UNK         0.0284 
     36 CB        -73.9671   22.6338  -76.7671 C.3       7 UNK        -0.1958 
     37 N         -74.8682   24.5200  -78.0627 N.am      7 UNK        -0.4454 
     38 C         -75.0195   25.3835  -79.0781 C.2       7 UNK         0.5089 
     39 O         -74.1679   25.5796  -79.9459 O.2       7 UNK        -0.5125 
     40 CA        -76.3474   26.1572  -79.1454 C.3       6 UNK         0.0408 
     41 CB        -77.4275   25.3190  -79.8470 C.3       6 UNK        -0.1791 
     42 N         -76.8181   26.5657  -77.8211 N.am      6 UNK        -0.4762 
     43 C         -76.2603   27.5442  -77.0917 C.2       6 UNK         0.5007 
     44 O         -75.3781   28.2854  -77.5256 O.2       6 UNK        -0.5032 
     45 CA        -76.7559   27.7122  -75.6377 C.3       5 UNK         0.0783 
     46 C46       -77.8962   28.7551  -75.5300 C.3       11 UNK        -0.0857 
     47 S47       -77.2717   30.4392  -75.2263 S.3       11 UNK        -0.2512 
     48 C48       -78.3307   30.9804  -73.8431 C.3       11 UNK         0.0225 
     49 N         -77.1483   26.4371  -75.0322 N.am      5 UNK        -0.4615 
     50 C         -76.3005   25.4520  -74.7088 C.2       4 UNK         0.5053 
     51 O         -75.0858   25.4932  -74.8964 O.2       4 UNK        -0.5105 
     52 CA        -76.9256   24.1833  -74.1117 C.3       4 UNK         0.0263 
     53 CB        -77.1959   24.3678  -72.6116 C.3       4 UNK        -0.1981 
     54 N         -78.1615   23.7963  -74.7954 N.am      4 UNK        -0.4224 
     55 C         -78.2137   23.3918  -76.0719 C.2       3 UNK         0.4895 
     56 O         -77.2279   23.3015  -76.8032 O.2       3 UNK        -0.5091 
     57 CA        -79.5997   23.0619  -76.6415 C.3       3 UNK         0.0250 
     58 CB        -80.0937   21.7001  -76.1268 C.3       3 UNK        -0.1996 
     59 N         -80.6006   24.0915  -76.3569 N.am      3 UNK        -0.4254 
     60 C         -80.5611   25.3505  -76.8150 C.2       2 UNK         0.5004 
     61 O         -79.6316   25.8149  -77.4725 O.2       2 UNK        -0.5226 
     62 CA        -81.7684   26.2406  -76.4873 C.3       2 UNK         0.0269 
     63 CB        -82.9091   25.9947  -77.4881 C.3       2 UNK        -0.1926 
     64 N         -82.2574   26.0301  -75.1232 N.am      2 UNK        -0.4687 
     65 C         -81.6654   26.5515  -74.0401 C.2       1 UNK         0.5165 
     66 O         -80.6772   27.2829  -74.1003 O.2       1 UNK        -0.5079 
     67 H67       -82.1062   21.7080  -73.1715 H         1 UNK         0.0900 
     68 H68       -81.3047   21.9034  -71.6107 H         1 UNK         0.0900 
     69 H69       -83.0043   22.3411  -71.7897 H         1 UNK         0.0900 
     70 H70       -83.3497   24.4958  -72.0208 H         1 UNK         0.2959 
     71 H71       -83.3205   26.5575  -72.7735 H         1 UNK         0.1079 
     72 H72       -81.7240   28.0309  -71.6692 H         1 UNK         0.0837 
     73 H73       -82.3717   26.8264  -70.6056 H         1 UNK         0.0837 
     74 H74       -80.4400   28.5170  -69.6667 H         1 UNK         0.0685 
     75 H75       -79.1290   27.5831  -69.0071 H         1 UNK         0.0685 
     76 H76       -79.7989   29.1784  -72.3940 H         1 UNK         0.1434 
     77 H77       -76.0889   31.3260  -72.3449 H         1 UNK         0.1329 
     78 H78       -77.1233   28.7708  -69.0650 H         1 UNK         0.1335 
     79 H79       -75.4189   30.8321  -68.9256 H         1 UNK         0.0680 
     80 H80       -74.6658   31.2705  -70.4372 H         1 UNK         0.0680 
     81 H81       -73.3571   27.6753  -71.6075 H         1 UNK         0.1032 
     82 H82       -74.4303   28.9394  -72.1076 H         1 UNK         0.1032 
     83 H83       -72.4797   30.6109  -71.5569 H         1 UNK         0.0461 
     84 H84       -70.9290   30.3808  -69.8766 H         1 UNK         0.3453 
     85 H85       -69.6088   29.2430  -69.9589 H         1 UNK         0.3453 
     86 H86       -72.9098   29.0204  -73.9030 H         1 UNK         0.2984 
     87 H87       -72.6779   30.4445  -75.9607 H         1 UNK         0.0554 
     88 H88       -70.9923   32.2530  -76.2396 H         1 UNK         0.0847 
     89 H89       -70.8691   31.0786  -77.5370 H         1 UNK         0.0847 
     90 H90       -69.6890   31.0734  -76.2257 H         1 UNK         0.0847 
     91 H91       -70.3840   28.7215  -76.4125 H         1 UNK         0.3141 
     92 H92       -70.8201   26.5844  -77.0542 H         1 UNK         0.0743 
     93 H93       -69.9478   26.5036  -74.6871 H         1 UNK         0.0784 
     94 H94       -71.4034   25.6634  -74.1736 H         1 UNK         0.0784 
     95 H95       -70.2783   24.8862  -75.2875 H         1 UNK         0.0784 
     96 H96       -73.4969   25.7449  -76.2276 H         1 UNK         0.3213 
     97 H97       -73.4615   23.1764  -78.7741 H         1 UNK         0.0855 
     98 H98       -74.2207   23.0846  -75.8077 H         1 UNK         0.0814 
     99 H99       -73.0978   21.9946  -76.6070 H         1 UNK         0.0814 
    100 H100      -74.7935   21.9873  -77.0627 H         1 UNK         0.0814 
    101 H101      -75.6511   24.3693  -77.4334 H         1 UNK         0.3105 
    102 H102      -76.1814   27.0559  -79.7432 H         1 UNK         0.0547 
    103 H103      -78.3491   25.8874  -79.9731 H         1 UNK         0.0837 
    104 H104      -77.0988   25.0101  -80.8401 H         1 UNK         0.0837 
    105 H105      -77.6678   24.4153  -79.2862 H         1 UNK         0.0837 
    106 H106      -77.6099   26.0565  -77.4404 H         1 UNK         0.3020 
    107 H107      -75.9001   28.0686  -75.0586 H         1 UNK         0.1245 
    108 H108      -78.5474   28.5004  -74.6954 H         1 UNK         0.0781 
    109 H109      -78.5419   28.7540  -76.4107 H         1 UNK         0.0781 
    110 H110      -79.3765   30.8041  -74.1006 H         1 UNK         0.0836 
    111 H111      -78.2277   32.0604  -73.7294 H         1 UNK         0.0836 
    112 H112      -78.1340   26.3068  -74.8515 H         1 UNK         0.3022 
    113 H113      -76.2085   23.3685  -74.2306 H         1 UNK         0.0747 
    114 H114      -77.5973   23.4583  -72.1643 H         1 UNK         0.0793 
    115 H115      -76.2797   24.6203  -72.0763 H         1 UNK         0.0793 
    116 H116      -77.9110   25.1705  -72.4324 H         1 UNK         0.0793 
    117 H117      -79.0271   23.8525  -74.2568 H         1 UNK         0.3047 
    118 H118      -79.4985   22.9962  -77.7270 H         1 UNK         0.0822 
    119 H119      -79.3715   20.9140  -76.3521 H         1 UNK         0.0807 
    120 H120      -81.0360   21.4161  -76.5956 H         1 UNK         0.0807 
    121 H121      -80.2432   21.7044  -75.0465 H         1 UNK         0.0807 
    122 H122      -81.3755   23.8219  -75.7701 H         1 UNK         0.2946 
    123 H123      -81.4461   27.2798  -76.5917 H         1 UNK         0.1144 
    124 H124      -83.7430   26.6747  -77.3127 H         1 UNK         0.0793 
    125 H125      -83.2896   24.9742  -77.4302 H         1 UNK         0.0793 
    126 H126      -82.5698   26.1583  -78.5120 H         1 UNK         0.0793 
    127 H127      -83.0659   25.4368  -75.0026 H         1 UNK         0.2896 
@<TRIPOS>BOND
     1    1    2 1    
     2    1   67 1    
     3    1   68 1    
     4    1   69 1    
     5    2    3 2    
     6    2    4 am   BACKBONE|DICT|INTERRES
     7    4    5 1    
     8    4   70 1    
     9    5    6 1    
    10    5   65 1    
    11    5   71 1    
    12    6    7 1    
    13    6   72 1    
    14    6   73 1    
    15    7    8 1    
    16    8    9 1    
    17    8   74 1    
    18    8   75 1    
    19    9   10 ar   
    20    9   14 ar   
    21   10   11 ar   
    22   10   76 1    
    23   11   12 ar   
    24   11   48 1    
    25   12   13 ar   
    26   12   77 1    
    27   13   14 ar   
    28   13   15 1    
    29   14   78 1    
    30   15   16 1    
    31   15   79 1    
    32   15   80 1    
    33   16   17 1    
    34   17   18 1    
    35   17   81 1    
    36   17   82 1    
    37   18   19 1    
    38   18   22 1    
    39   18   83 1    
    40   19   20 am   BACKBONE|DICT|INTERRES
    41   19   21 2    
    42   20   84 1    
    43   20   85 1    
    44   22   23 am   BACKBONE|DICT|INTERRES
    45   22   86 1    
    46   23   24 2    
    47   23   25 1    
    48   25   26 1    
    49   25   27 1    
    50   25   87 1    
    51   26   88 1    
    52   26   89 1    
    53   26   90 1    
    54   27   28 am   BACKBONE|DICT|INTERRES
    55   27   91 1    
    56   28   29 2    
    57   28   30 1    
    58   30   31 1    
    59   30   32 1    
    60   30   92 1    
    61   31   93 1    
    62   31   94 1    
    63   31   95 1    
    64   32   33 am   BACKBONE|DICT|INTERRES
    65   32   96 1    
    66   33   34 2    
    67   33   35 1    
    68   35   36 1    
    69   35   37 1    
    70   35   97 1    
    71   36   98 1    
    72   36   99 1    
    73   36  100 1    
    74   37   38 am   BACKBONE|DICT|INTERRES
    75   37  101 1    
    76   38   39 2    
    77   38   40 1    
    78   40   41 1    
    79   40   42 1    
    80   40  102 1    
    81   41  103 1    
    82   41  104 1    
    83   41  105 1    
    84   42   43 am   BACKBONE|DICT|INTERRES
    85   42  106 1    
    86   43   44 2    
    87   43   45 1    
    88   45   46 1    
    89   45   49 1    
    90   45  107 1    
    91   46   47 1    
    92   46  108 1    
    93   46  109 1    
    94   47   48 1    
    95   48  110 1    
    96   48  111 1    
    97   49   50 am   BACKBONE|DICT|INTERRES
    98   49  112 1    
    99   50   51 2    
   100   50   52 1    
   101   52   53 1    
   102   52   54 1    
   103   52  113 1    
   104   53  114 1    
   105   53  115 1    
   106   53  116 1    
   107   54   55 am   BACKBONE|DICT|INTERRES
   108   54  117 1    
   109   55   56 2    
   110   55   57 1    
   111   57   58 1    
   112   57   59 1    
   113   57  118 1    
   114   58  119 1    
   115   58  120 1    
   116   58  121 1    
   117   59   60 am   BACKBONE|DICT|INTERRES
   118   59  122 1    
   119   60   61 2    
   120   60   62 1    
   121   62   63 1    
   122   62   64 1    
   123   62  123 1    
   124   63  124 1    
   125   63  125 1    
   126   63  126 1    
   127   64   65 am   BACKBONE|DICT|INTERRES
   128   64  127 1    
   129   65   66 2    
@<TRIPOS>SUBSTRUCTURE
     1 UNK         1 GROUP             0       ****    0 ROOT    
