@<TRIPOS>MOLECULE
3R135
127   129    1
SMALL
USER_CHARGES


@<TRIPOS>ATOM
      1 CA        -78.3019   20.8067  -72.7351 C.3       0 UNK        -0.1998 
      2 C         -79.3271   21.8689  -72.3706 C.2       0 UNK         0.4909 
      3 O         -80.5099   21.7057  -72.6737 O.2       0 UNK        -0.5240 
      4 N         -78.8848   22.9577  -71.7264 N.am      1 UNK        -0.4739 
      5 CA        -79.7050   24.1089  -71.3332 C.3       1 UNK         0.0864 
      6 C6        -78.9182   25.1293  -70.4683 C.3       11 UNK        -0.0881 
      7 S7        -77.2852   25.6202  -71.1369 S.3       11 UNK        -0.2682 
      8 C8        -77.1588   27.3484  -70.5746 C.3       11 UNK         0.0289 
      9 C9        -77.4235   28.3523  -71.6902 C.ar      11 UNK        -0.0687 
     10 C10       -78.7014   28.4932  -72.2420 C.ar      11 UNK        -0.0823 
     11 C11       -78.9458   29.4450  -73.2386 C.ar      11 UNK        -0.0830 
     12 C12       -77.9034   30.2682  -73.6759 C.ar      11 UNK        -0.1021 
     13 C13       -76.6212   30.1304  -73.1380 C.ar      11 UNK        -0.0753 
     14 C14       -76.3876   29.1724  -72.1479 C.ar      11 UNK        -0.0933 
     15 C15       -75.4885   31.0279  -73.6053 C.3       11 UNK         0.0166 
     16 S16       -74.3534   30.1355  -74.7092 S.3       11 UNK        -0.2615 
     17 C17       -73.0994   31.4321  -75.0195 C.3       11 UNK        -0.0865 
     18 CA        -71.7890   31.2364  -74.2126 C.3       10 UNK         0.0862 
     19 C         -71.9938   31.5392  -72.6974 C.2       10 UNK         0.5551 
     20 N         -72.0022   30.5458  -71.8149 N.am      10 UNK        -0.7319 
     21 O         -72.1438   32.6992  -72.3218 O.2       10 UNK        -0.5018 
     22 N         -71.1854   29.9299  -74.5001 N.am      10 UNK        -0.4509 
     23 C         -69.9482   29.5539  -74.1560 C.2       10 UNK         0.4899 
     24 O         -69.0925   30.3360  -73.7388 O.2       10 UNK        -0.4839 
     25 CA        -69.6075   28.0536  -74.2917 C.3       9 UNK         0.0222 
     26 CB        -68.7039   27.5657  -73.1402 C.3       9 UNK        -0.1966 
     27 N         -70.7739   27.1666  -74.4307 N.am      9 UNK        -0.4218 
     28 C         -71.8110   27.0107  -73.5948 C.2       9 UNK         0.5020 
     29 O         -71.9399   27.6534  -72.5502 O.2       9 UNK        -0.5274 
     30 CA        -72.8921   25.9883  -74.0143 C.3       8 UNK         0.0270 
     31 CB        -74.1102   26.0148  -73.0712 C.3       8 UNK        -0.1976 
     32 N         -73.3724   26.1472  -75.3946 N.am      8 UNK        -0.4313 
     33 C         -72.6900   25.8920  -76.5213 C.2       8 UNK         0.5041 
     34 O         -71.5179   25.5124  -76.5311 O.2       8 UNK        -0.5577 
     35 CA        -73.4086   26.1133  -77.8609 C.3       7 UNK         0.0284 
     36 CB        -74.1434   24.8338  -78.2929 C.3       7 UNK        -0.1958 
     37 N         -74.3584   27.2278  -77.7896 N.am      7 UNK        -0.4454 
     38 C         -74.1959   28.4141  -78.3941 C.2       7 UNK         0.5089 
     39 O         -73.2280   28.6815  -79.1076 O.2       7 UNK        -0.5125 
     40 CA        -75.2558   29.5120  -78.1552 C.3       6 UNK         0.0408 
     41 CB        -75.7717   30.1203  -79.4765 C.3       6 UNK        -0.1791 
     42 N         -76.3539   29.1141  -77.2619 N.am      6 UNK        -0.4762 
     43 C         -77.3683   28.2781  -77.5253 C.2       6 UNK         0.5007 
     44 O         -77.5878   27.7743  -78.6285 O.2       6 UNK        -0.5032 
     45 CA        -78.2620   27.8952  -76.3292 C.3       5 UNK         0.0783 
     46 C46       -79.6342   28.6055  -76.4171 C.3       11 UNK        -0.0857 
     47 S47       -80.7192   28.2367  -74.9998 S.3       11 UNK        -0.2512 
     48 C48       -80.3374   29.5866  -73.8388 C.3       11 UNK         0.0225 
     49 N         -78.3632   26.4367  -76.2149 N.am      5 UNK        -0.4615 
     50 C         -77.3119   25.6432  -75.9681 C.2       4 UNK         0.5053 
     51 O         -76.1744   26.0841  -75.7851 O.2       4 UNK        -0.5105 
     52 CA        -77.5336   24.1220  -75.9496 C.3       4 UNK         0.0263 
     53 CB        -76.7176   23.4464  -74.8337 C.3       4 UNK        -0.1981 
     54 N         -78.9451   23.7591  -75.7984 N.am      4 UNK        -0.4224 
     55 C         -79.6299   22.9693  -76.6398 C.2       3 UNK         0.4895 
     56 O         -79.1548   22.5191  -77.6833 O.2       3 UNK        -0.5091 
     57 CA        -81.0761   22.5808  -76.2721 C.3       3 UNK         0.0250 
     58 CB        -81.1851   21.0646  -76.0349 C.3       3 UNK        -0.1996 
     59 N         -81.5825   23.2808  -75.0905 N.am      3 UNK        -0.4254 
     60 C         -82.1645   24.4885  -75.1177 C.2       2 UNK         0.5004 
     61 O         -82.4009   25.1061  -76.1561 O.2       2 UNK        -0.5226 
     62 CA        -82.5294   25.1290  -73.7626 C.3       2 UNK         0.0269 
     63 CB        -84.0126   24.8868  -73.4395 C.3       2 UNK        -0.1926 
     64 N         -81.7109   24.6736  -72.6317 N.am      2 UNK        -0.4687 
     65 C         -80.3745   24.7603  -72.5597 C.2       1 UNK         0.5165 
     66 O         -79.6775   25.2553  -73.4444 O.2       1 UNK        -0.5079 
     67 H67       -78.5248   19.8771  -72.2125 H         1 UNK         0.0900 
     68 H68       -78.3305   20.6100  -73.8063 H         1 UNK         0.0900 
     69 H69       -77.2889   21.1110  -72.4723 H         1 UNK         0.0900 
     70 H70       -77.8985   23.0588  -71.5328 H         1 UNK         0.2959 
     71 H71       -80.5022   23.7124  -70.7005 H         1 UNK         0.1079 
     72 H72       -78.7405   24.6961  -69.4828 H         1 UNK         0.0837 
     73 H73       -79.5294   26.0148  -70.2859 H         1 UNK         0.0837 
     74 H74       -77.8417   27.5344  -69.7448 H         1 UNK         0.0685 
     75 H75       -76.1562   27.4931  -70.1694 H         1 UNK         0.0685 
     76 H76       -79.5057   27.8552  -71.9039 H         1 UNK         0.1434 
     77 H77       -78.0885   31.0110  -74.4401 H         1 UNK         0.1329 
     78 H78       -75.3942   29.0730  -71.7311 H         1 UNK         0.1335 
     79 H79       -74.9425   31.3991  -72.7373 H         1 UNK         0.0680 
     80 H80       -75.8815   31.9045  -74.1229 H         1 UNK         0.0680 
     81 H81       -72.8682   31.4190  -76.0856 H         1 UNK         0.1032 
     82 H82       -73.5244   32.4202  -74.8325 H         1 UNK         0.1032 
     83 H83       -71.0825   31.9883  -74.5696 H         1 UNK         0.0461 
     84 H84       -71.9164   29.5810  -72.1211 H         1 UNK         0.3453 
     85 H85       -72.1297   30.7529  -70.8379 H         1 UNK         0.3453 
     86 H86       -71.8299   29.2166  -74.8064 H         1 UNK         0.2984 
     87 H87       -69.0443   27.9560  -75.2207 H         1 UNK         0.0554 
     88 H88       -67.7675   28.1241  -73.1089 H         1 UNK         0.0847 
     89 H89       -68.4455   26.5133  -73.2564 H         1 UNK         0.0847 
     90 H90       -69.1870   27.6875  -72.1700 H         1 UNK         0.0847 
     91 H91       -70.7994   26.5926  -75.2744 H         1 UNK         0.3141 
     92 H92       -72.4329   25.0012  -73.9340 H         1 UNK         0.0743 
     93 H93       -74.8261   25.2323  -73.3193 H         1 UNK         0.0784 
     94 H94       -73.8150   25.8583  -72.0330 H         1 UNK         0.0784 
     95 H95       -74.6348   26.9697  -73.1224 H         1 UNK         0.0784 
     96 H96       -74.3591   26.3779  -75.4849 H         1 UNK         0.3213 
     97 H97       -72.6399   26.3199  -78.6087 H         1 UNK         0.0855 
     98 H98       -74.8790   24.5160  -77.5552 H         1 UNK         0.0814 
     99 H99       -73.4409   24.0096  -78.4235 H         1 UNK         0.0814 
    100 H100      -74.6590   24.9740  -79.2430 H         1 UNK         0.0814 
    101 H101      -75.1761   27.0851  -77.2066 H         1 UNK         0.3105 
    102 H102      -74.7330   30.3116  -77.6302 H         1 UNK         0.0547 
    103 H103      -74.9578   30.5894  -80.0304 H         1 UNK         0.0837 
    104 H104      -76.2089   29.3672  -80.1322 H         1 UNK         0.0837 
    105 H105      -76.5229   30.8888  -79.2955 H         1 UNK         0.0837 
    106 H106      -76.2448   29.4430  -76.3103 H         1 UNK         0.3020 
    107 H107      -77.7641   28.2272  -75.4178 H         1 UNK         0.1245 
    108 H108      -79.5052   29.6872  -76.4886 H         1 UNK         0.0781 
    109 H109      -80.1597   28.3029  -77.3250 H         1 UNK         0.0781 
    110 H110      -81.0761   29.5764  -73.0361 H         1 UNK         0.0836 
    111 H111      -80.4523   30.5474  -74.3428 H         1 UNK         0.0836 
    112 H112      -79.2767   26.0305  -76.3484 H         1 UNK         0.3022 
    113 H113      -77.1520   23.7592  -76.9054 H         1 UNK         0.0747 
    114 H114      -75.6500   23.6297  -74.9603 H         1 UNK         0.0793 
    115 H115      -77.0021   23.8214  -73.8499 H         1 UNK         0.0793 
    116 H116      -76.8570   22.3662  -74.8412 H         1 UNK         0.0793 
    117 H117      -79.4042   24.1477  -74.9772 H         1 UNK         0.3047 
    118 H118      -81.7030   22.8290  -77.1314 H         1 UNK         0.0822 
    119 H119      -82.2089   20.7716  -75.8017 H         1 UNK         0.0807 
    120 H120      -80.5472   20.7358  -75.2143 H         1 UNK         0.0807 
    121 H121      -80.8848   20.5065  -76.9228 H         1 UNK         0.0807 
    122 H122      -81.4080   22.8392  -74.1928 H         1 UNK         0.2946 
    123 H123      -82.3761   26.2040  -73.8637 H         1 UNK         0.1144 
    124 H124      -84.6513   25.2409  -74.2501 H         1 UNK         0.0793 
    125 H125      -84.3153   25.4182  -72.5370 H         1 UNK         0.0793 
    126 H126      -84.2263   23.8270  -73.2954 H         1 UNK         0.0793 
    127 H127      -82.2067   24.2114  -71.8828 H         1 UNK         0.2896 
@<TRIPOS>BOND
     1    1    2 1    
     2    1   67 1    
     3    1   68 1    
     4    1   69 1    
     5    2    3 2    
     6    2    4 am   BACKBONE|DICT|INTERRES
     7    4    5 1    
     8    4   70 1    
     9    5    6 1    
    10    5   65 1    
    11    5   71 1    
    12    6    7 1    
    13    6   72 1    
    14    6   73 1    
    15    7    8 1    
    16    8    9 1    
    17    8   74 1    
    18    8   75 1    
    19    9   10 ar   
    20    9   14 ar   
    21   10   11 ar   
    22   10   76 1    
    23   11   12 ar   
    24   11   48 1    
    25   12   13 ar   
    26   12   77 1    
    27   13   14 ar   
    28   13   15 1    
    29   14   78 1    
    30   15   16 1    
    31   15   79 1    
    32   15   80 1    
    33   16   17 1    
    34   17   18 1    
    35   17   81 1    
    36   17   82 1    
    37   18   19 1    
    38   18   22 1    
    39   18   83 1    
    40   19   20 am   BACKBONE|DICT|INTERRES
    41   19   21 2    
    42   20   84 1    
    43   20   85 1    
    44   22   23 am   BACKBONE|DICT|INTERRES
    45   22   86 1    
    46   23   24 2    
    47   23   25 1    
    48   25   26 1    
    49   25   27 1    
    50   25   87 1    
    51   26   88 1    
    52   26   89 1    
    53   26   90 1    
    54   27   28 am   BACKBONE|DICT|INTERRES
    55   27   91 1    
    56   28   29 2    
    57   28   30 1    
    58   30   31 1    
    59   30   32 1    
    60   30   92 1    
    61   31   93 1    
    62   31   94 1    
    63   31   95 1    
    64   32   33 am   BACKBONE|DICT|INTERRES
    65   32   96 1    
    66   33   34 2    
    67   33   35 1    
    68   35   36 1    
    69   35   37 1    
    70   35   97 1    
    71   36   98 1    
    72   36   99 1    
    73   36  100 1    
    74   37   38 am   BACKBONE|DICT|INTERRES
    75   37  101 1    
    76   38   39 2    
    77   38   40 1    
    78   40   41 1    
    79   40   42 1    
    80   40  102 1    
    81   41  103 1    
    82   41  104 1    
    83   41  105 1    
    84   42   43 am   BACKBONE|DICT|INTERRES
    85   42  106 1    
    86   43   44 2    
    87   43   45 1    
    88   45   46 1    
    89   45   49 1    
    90   45  107 1    
    91   46   47 1    
    92   46  108 1    
    93   46  109 1    
    94   47   48 1    
    95   48  110 1    
    96   48  111 1    
    97   49   50 am   BACKBONE|DICT|INTERRES
    98   49  112 1    
    99   50   51 2    
   100   50   52 1    
   101   52   53 1    
   102   52   54 1    
   103   52  113 1    
   104   53  114 1    
   105   53  115 1    
   106   53  116 1    
   107   54   55 am   BACKBONE|DICT|INTERRES
   108   54  117 1    
   109   55   56 2    
   110   55   57 1    
   111   57   58 1    
   112   57   59 1    
   113   57  118 1    
   114   58  119 1    
   115   58  120 1    
   116   58  121 1    
   117   59   60 am   BACKBONE|DICT|INTERRES
   118   59  122 1    
   119   60   61 2    
   120   60   62 1    
   121   62   63 1    
   122   62   64 1    
   123   62  123 1    
   124   63  124 1    
   125   63  125 1    
   126   63  126 1    
   127   64   65 am   BACKBONE|DICT|INTERRES
   128   64  127 1    
   129   65   66 2    
@<TRIPOS>SUBSTRUCTURE
     1 UNK         1 GROUP             0       ****    0 ROOT    
