@<TRIPOS>MOLECULE
3R135
127   129    1
SMALL
USER_CHARGES


@<TRIPOS>ATOM
      1 CA        -76.8206   25.2484  -73.9580 C.3       0 UNK        -0.1998 
      2 C         -77.9919   24.6373  -73.2041 C.2       0 UNK         0.4909 
      3 O         -78.1657   23.4179  -73.2319 O.2       0 UNK        -0.5240 
      4 N         -78.7945   25.4708  -72.5288 N.am      1 UNK        -0.4739 
      5 CA        -79.9969   25.0818  -71.7844 C.3       1 UNK         0.0864 
      6 C6        -80.5593   26.2533  -70.9419 C.3       11 UNK        -0.0881 
      7 S7        -79.4584   26.6781  -69.5520 S.3       11 UNK        -0.2682 
      8 C8        -79.2632   28.4802  -69.7477 C.3       11 UNK         0.0289 
      9 C9        -78.3642   28.8683  -70.9160 C.ar      11 UNK        -0.0687 
     10 C10       -78.8035   29.7990  -71.8644 C.ar      11 UNK        -0.0823 
     11 C11       -77.9615   30.2057  -72.9049 C.ar      11 UNK        -0.0830 
     12 C12       -76.6779   29.6630  -72.9976 C.ar      11 UNK        -0.1021 
     13 C13       -76.2300   28.7239  -72.0672 C.ar      11 UNK        -0.0753 
     14 C14       -77.0747   28.3368  -71.0239 C.ar      11 UNK        -0.0933 
     15 C15       -74.8599   28.0824  -72.2210 C.3       11 UNK         0.0166 
     16 S16       -73.6912   28.5489  -70.9025 S.3       11 UNK        -0.2615 
     17 C17       -73.1768   30.2762  -71.2347 C.3       11 UNK        -0.0865 
     18 CA        -73.1511   30.7668  -72.7079 C.3       10 UNK         0.0862 
     19 C         -72.6765   32.2459  -72.7695 C.2       10 UNK         0.5551 
     20 N         -73.5936   33.1966  -72.6518 N.am      10 UNK        -0.7319 
     21 O         -71.4860   32.5364  -72.8729 O.2       10 UNK        -0.5018 
     22 N         -72.3671   29.8783  -73.5778 N.am      10 UNK        -0.4509 
     23 C         -72.2901   29.9689  -74.9108 C.2       10 UNK         0.4899 
     24 O         -72.9299   30.7795  -75.5817 O.2       10 UNK        -0.4839 
     25 CA        -71.3437   28.9903  -75.6300 C.3       9 UNK         0.0222 
     26 CB        -69.8656   29.3206  -75.3419 C.3       9 UNK        -0.1966 
     27 N         -71.6416   27.5711  -75.3951 N.am      9 UNK        -0.4218 
     28 C         -71.5756   26.8714  -74.2507 C.2       9 UNK         0.5020 
     29 O         -71.1866   27.3442  -73.1818 O.2       9 UNK        -0.5274 
     30 CA        -72.0090   25.3956  -74.3115 C.3       8 UNK         0.0270 
     31 CB        -72.6281   24.8894  -72.9958 C.3       8 UNK        -0.1976 
     32 N         -72.9427   25.1621  -75.4161 N.am      8 UNK        -0.4313 
     33 C         -72.8199   24.1824  -76.3208 C.2       8 UNK         0.5041 
     34 O         -71.9664   23.2960  -76.2608 O.2       8 UNK        -0.5577 
     35 CA        -73.7916   24.1966  -77.5163 C.3       7 UNK         0.0284 
     36 CB        -74.9523   23.2245  -77.2639 C.3       7 UNK        -0.1958 
     37 N         -74.3294   25.5190  -77.8638 N.am      7 UNK        -0.4454 
     38 C         -73.5946   26.5894  -78.2026 C.2       7 UNK         0.5089 
     39 O         -72.3636   26.5967  -78.2146 O.2       7 UNK        -0.5125 
     40 CA        -74.3401   27.8904  -78.5481 C.3       6 UNK         0.0408 
     41 CB        -74.4774   28.0318  -80.0722 C.3       6 UNK        -0.1791 
     42 N         -75.6604   28.0545  -77.9290 N.am      6 UNK        -0.4762 
     43 C         -75.9113   28.0535  -76.6098 C.2       6 UNK         0.5007 
     44 O         -75.0778   27.7548  -75.7530 O.2       6 UNK        -0.5032 
     45 CA        -77.3368   28.4362  -76.1826 C.3       5 UNK         0.0783 
     46 C46       -77.5611   29.9664  -76.2923 C.3       11 UNK        -0.0857 
     47 S47       -79.0823   30.5056  -75.4387 S.3       11 UNK        -0.2512 
     48 C48       -78.4247   31.2513  -73.9116 C.3       11 UNK         0.0225 
     49 N         -78.3134   27.6698  -76.9607 N.am      5 UNK        -0.4615 
     50 C         -79.3281   26.9785  -76.4326 C.2       4 UNK         0.5053 
     51 O         -79.5683   26.9317  -75.2274 O.2       4 UNK        -0.5105 
     52 CA        -80.2371   26.1948  -77.4000 C.3       4 UNK         0.0263 
     53 CB        -79.9343   26.4265  -78.8995 C.3       4 UNK        -0.1981 
     54 N         -80.2314   24.7634  -77.0817 N.am      4 UNK        -0.4224 
     55 C         -79.1661   23.9487  -77.0601 C.2       3 UNK         0.4895 
     56 O         -78.0313   24.2984  -77.3895 O.2       3 UNK        -0.5091 
     57 CA        -79.4175   22.5110  -76.5698 C.3       3 UNK         0.0250 
     58 CB        -78.1180   21.7021  -76.4013 C.3       3 UNK        -0.1996 
     59 N         -80.1369   22.5130  -75.2945 N.am      3 UNK        -0.4254 
     60 C         -81.4684   22.4388  -75.1583 C.2       2 UNK         0.5004 
     61 O         -82.2455   22.3758  -76.1111 O.2       2 UNK        -0.5226 
     62 CA        -82.0357   22.4585  -73.7281 C.3       2 UNK         0.0269 
     63 CB        -82.2526   21.0251  -73.2170 C.3       2 UNK        -0.1926 
     64 N         -81.1722   23.1799  -72.7908 N.am      2 UNK        -0.4687 
     65 C         -81.0684   24.5147  -72.7385 C.2       1 UNK         0.5165 
     66 O         -81.7654   25.2783  -73.4092 O.2       1 UNK        -0.5079 
     67 H67       -75.8897   24.7599  -73.6724 H         1 UNK         0.0900 
     68 H68       -76.7242   26.3135  -73.7558 H         1 UNK         0.0900 
     69 H69       -76.9588   25.1212  -75.0307 H         1 UNK         0.0900 
     70 H70       -78.6282   26.4662  -72.5805 H         1 UNK         0.2959 
     71 H71       -79.7115   24.2844  -71.0945 H         1 UNK         0.1079 
     72 H72       -80.7320   27.1296  -71.5702 H         1 UNK         0.0837 
     73 H73       -81.5292   25.9907  -70.5144 H         1 UNK         0.0837 
     74 H74       -78.8272   28.8817  -68.8321 H         1 UNK         0.0685 
     75 H75       -80.2501   28.9363  -69.8413 H         1 UNK         0.0685 
     76 H76       -79.7958   30.2217  -71.7840 H         1 UNK         0.1434 
     77 H77       -76.0340   29.9548  -73.8130 H         1 UNK         0.1329 
     78 H78       -76.7278   27.6159  -70.2960 H         1 UNK         0.1335 
     79 H79       -74.9981   27.0038  -72.1682 H         1 UNK         0.0680 
     80 H80       -74.4348   28.2753  -73.2047 H         1 UNK         0.0680 
     81 H81       -72.1873   30.4000  -70.7901 H         1 UNK         0.1032 
     82 H82       -73.8403   30.9169  -70.6505 H         1 UNK         0.1032 
     83 H83       -74.1687   30.7532  -73.0875 H         1 UNK         0.0461 
     84 H84       -73.3027   34.1616  -72.6716 H         1 UNK         0.3453 
     85 H85       -74.5707   32.9716  -72.5491 H         1 UNK         0.3453 
     86 H86       -71.8413   29.1364  -73.1238 H         1 UNK         0.2984 
     87 H87       -71.5002   29.1389  -76.6998 H         1 UNK         0.0554 
     88 H88       -69.1977   28.6913  -75.9299 H         1 UNK         0.0847 
     89 H89       -69.6101   29.1882  -74.2903 H         1 UNK         0.0847 
     90 H90       -69.6433   30.3573  -75.5983 H         1 UNK         0.0847 
     91 H91       -71.9372   27.0697  -76.2261 H         1 UNK         0.3141 
     92 H92       -71.0859   24.8370  -74.4793 H         1 UNK         0.0743 
     93 H93       -73.5601   25.4012  -72.7681 H         1 UNK         0.0784 
     94 H94       -72.8394   23.8212  -73.0470 H         1 UNK         0.0784 
     95 H95       -71.9533   25.0436  -72.1529 H         1 UNK         0.0784 
     96 H96       -73.6764   25.8511  -75.5411 H         1 UNK         0.3213 
     97 H97       -73.2329   23.8403  -78.3843 H         1 UNK         0.0855 
     98 H98       -75.5609   23.5409  -76.4167 H         1 UNK         0.0814 
     99 H99       -74.5847   22.2212  -77.0440 H         1 UNK         0.0814 
    100 H100      -75.6024   23.1457  -78.1354 H         1 UNK         0.0814 
    101 H101      -75.3357   25.6130  -77.8660 H         1 UNK         0.3105 
    102 H102      -73.7193   28.7139  -78.1886 H         1 UNK         0.0547 
    103 H103      -73.5069   27.9414  -80.5625 H         1 UNK         0.0837 
    104 H104      -75.1264   27.2625  -80.4926 H         1 UNK         0.0837 
    105 H105      -74.8844   29.0047  -80.3479 H         1 UNK         0.0837 
    106 H106      -76.4009   28.3238  -78.5587 H         1 UNK         0.3020 
    107 H107      -77.4145   28.1561  -75.1310 H         1 UNK         0.1245 
    108 H108      -77.6401   30.2650  -77.3391 H         1 UNK         0.0781 
    109 H109      -76.7119   30.5248  -75.8954 H         1 UNK         0.0781 
    110 H110      -79.2051   31.8710  -73.4673 H         1 UNK         0.0836 
    111 H111      -77.6073   31.9326  -74.1530 H         1 UNK         0.0836 
    112 H112      -78.1753   27.6191  -77.9578 H         1 UNK         0.3022 
    113 H113      -81.2519   26.5479  -77.2106 H         1 UNK         0.0747 
    114 H114      -80.6461   25.8880  -79.5253 H         1 UNK         0.0793 
    115 H115      -80.0206   27.4819  -79.1617 H         1 UNK         0.0793 
    116 H116      -78.9358   26.0904  -79.1810 H         1 UNK         0.0793 
    117 H117      -81.1126   24.3816  -76.7637 H         1 UNK         0.3047 
    118 H118      -80.0180   22.0133  -77.3343 H         1 UNK         0.0822 
    119 H119      -77.5681   21.6428  -77.3412 H         1 UNK         0.0807 
    120 H120      -78.3265   20.6800  -76.0855 H         1 UNK         0.0807 
    121 H121      -77.4574   22.1522  -75.6595 H         1 UNK         0.0807 
    122 H122      -79.5672   22.6478  -74.4638 H         1 UNK         0.2946 
    123 H123      -83.0061   22.9593  -73.7672 H         1 UNK         0.1144 
    124 H124      -82.9123   20.4690  -73.8848 H         1 UNK         0.0793 
    125 H125      -82.7160   21.0215  -72.2302 H         1 UNK         0.0793 
    126 H126      -81.3147   20.4722  -73.1508 H         1 UNK         0.0793 
    127 H127      -80.5401   22.6217  -72.2334 H         1 UNK         0.2896 
@<TRIPOS>BOND
     1    1    2 1    
     2    1   67 1    
     3    1   68 1    
     4    1   69 1    
     5    2    3 2    
     6    2    4 am   BACKBONE|DICT|INTERRES
     7    4    5 1    
     8    4   70 1    
     9    5    6 1    
    10    5   65 1    
    11    5   71 1    
    12    6    7 1    
    13    6   72 1    
    14    6   73 1    
    15    7    8 1    
    16    8    9 1    
    17    8   74 1    
    18    8   75 1    
    19    9   10 ar   
    20    9   14 ar   
    21   10   11 ar   
    22   10   76 1    
    23   11   12 ar   
    24   11   48 1    
    25   12   13 ar   
    26   12   77 1    
    27   13   14 ar   
    28   13   15 1    
    29   14   78 1    
    30   15   16 1    
    31   15   79 1    
    32   15   80 1    
    33   16   17 1    
    34   17   18 1    
    35   17   81 1    
    36   17   82 1    
    37   18   19 1    
    38   18   22 1    
    39   18   83 1    
    40   19   20 am   BACKBONE|DICT|INTERRES
    41   19   21 2    
    42   20   84 1    
    43   20   85 1    
    44   22   23 am   BACKBONE|DICT|INTERRES
    45   22   86 1    
    46   23   24 2    
    47   23   25 1    
    48   25   26 1    
    49   25   27 1    
    50   25   87 1    
    51   26   88 1    
    52   26   89 1    
    53   26   90 1    
    54   27   28 am   BACKBONE|DICT|INTERRES
    55   27   91 1    
    56   28   29 2    
    57   28   30 1    
    58   30   31 1    
    59   30   32 1    
    60   30   92 1    
    61   31   93 1    
    62   31   94 1    
    63   31   95 1    
    64   32   33 am   BACKBONE|DICT|INTERRES
    65   32   96 1    
    66   33   34 2    
    67   33   35 1    
    68   35   36 1    
    69   35   37 1    
    70   35   97 1    
    71   36   98 1    
    72   36   99 1    
    73   36  100 1    
    74   37   38 am   BACKBONE|DICT|INTERRES
    75   37  101 1    
    76   38   39 2    
    77   38   40 1    
    78   40   41 1    
    79   40   42 1    
    80   40  102 1    
    81   41  103 1    
    82   41  104 1    
    83   41  105 1    
    84   42   43 am   BACKBONE|DICT|INTERRES
    85   42  106 1    
    86   43   44 2    
    87   43   45 1    
    88   45   46 1    
    89   45   49 1    
    90   45  107 1    
    91   46   47 1    
    92   46  108 1    
    93   46  109 1    
    94   47   48 1    
    95   48  110 1    
    96   48  111 1    
    97   49   50 am   BACKBONE|DICT|INTERRES
    98   49  112 1    
    99   50   51 2    
   100   50   52 1    
   101   52   53 1    
   102   52   54 1    
   103   52  113 1    
   104   53  114 1    
   105   53  115 1    
   106   53  116 1    
   107   54   55 am   BACKBONE|DICT|INTERRES
   108   54  117 1    
   109   55   56 2    
   110   55   57 1    
   111   57   58 1    
   112   57   59 1    
   113   57  118 1    
   114   58  119 1    
   115   58  120 1    
   116   58  121 1    
   117   59   60 am   BACKBONE|DICT|INTERRES
   118   59  122 1    
   119   60   61 2    
   120   60   62 1    
   121   62   63 1    
   122   62   64 1    
   123   62  123 1    
   124   63  124 1    
   125   63  125 1    
   126   63  126 1    
   127   64   65 am   BACKBONE|DICT|INTERRES
   128   64  127 1    
   129   65   66 2    
@<TRIPOS>SUBSTRUCTURE
     1 UNK         1 GROUP             0       ****    0 ROOT    
