@<TRIPOS>MOLECULE
3R135
127   129    1
SMALL
USER_CHARGES


@<TRIPOS>ATOM
      1 CA        -82.4322   31.3764  -75.0032 C.3       0 UNK        -0.1998 
      2 C         -81.7042   30.0972  -74.6179 C.2       0 UNK         0.4909 
      3 O         -80.8838   29.6040  -75.3922 O.2       0 UNK        -0.5240 
      4 N         -81.9945   29.5630  -73.4249 N.am      1 UNK        -0.4739 
      5 CA        -81.4171   28.3249  -72.8885 C.3       1 UNK         0.0864 
      6 C6        -81.7495   28.1291  -71.3863 C.3       11 UNK        -0.0881 
      7 S7        -81.3356   29.5873  -70.3661 S.3       11 UNK        -0.2682 
      8 C8        -79.9581   28.9782  -69.3410 C.3       11 UNK         0.0289 
      9 C9        -78.6852   28.7084  -70.1352 C.ar      11 UNK        -0.0687 
     10 C10       -78.0258   27.4826  -69.9991 C.ar      11 UNK        -0.0823 
     11 C11       -76.8324   27.2359  -70.6852 C.ar      11 UNK        -0.0830 
     12 C12       -76.3014   28.2262  -71.5148 C.ar      11 UNK        -0.1021 
     13 C13       -76.9374   29.4632  -71.6451 C.ar      11 UNK        -0.0753 
     14 C14       -78.1314   29.6975  -70.9566 C.ar      11 UNK        -0.0933 
     15 C15       -76.3016   30.5585  -72.4869 C.3       11 UNK         0.0166 
     16 S16       -76.5459   30.2745  -74.2656 S.3       11 UNK        -0.2615 
     17 C17       -75.5255   31.6187  -74.9654 C.3       11 UNK        -0.0865 
     18 CA        -74.2395   31.1273  -75.6863 C.3       10 UNK         0.0862 
     19 C         -73.4742   32.3477  -76.2709 C.2       10 UNK         0.5551 
     20 N         -73.6675   32.6503  -77.5472 N.am      10 UNK        -0.7319 
     21 O         -72.7540   33.0486  -75.5621 O.2       10 UNK        -0.5018 
     22 N         -73.4186   30.2748  -74.8094 N.am      10 UNK        -0.4509 
     23 C         -72.2279   29.7304  -75.1009 C.2       10 UNK         0.4899 
     24 O         -71.6241   29.8999  -76.1608 O.2       10 UNK        -0.4839 
     25 CA        -71.5988   28.8168  -74.0388 C.3       9 UNK         0.0222 
     26 CB        -72.2887   28.8731  -72.6565 C.3       9 UNK        -0.1966 
     27 N         -71.5900   27.4446  -74.5468 N.am      9 UNK        -0.4218 
     28 C         -70.7861   26.4677  -74.1025 C.2       9 UNK         0.5020 
     29 O         -69.9137   26.6504  -73.2511 O.2       9 UNK        -0.5274 
     30 CA        -70.9703   25.0444  -74.6656 C.3       8 UNK         0.0270 
     31 CB        -71.2833   24.0498  -73.5328 C.3       8 UNK        -0.1976 
     32 N         -72.0408   24.9598  -75.6600 N.am      8 UNK        -0.4313 
     33 C         -71.8576   24.8447  -76.9832 C.2       8 UNK         0.5041 
     34 O         -70.7487   24.7676  -77.5142 O.2       8 UNK        -0.5577 
     35 CA        -73.1130   24.8169  -77.8810 C.3       7 UNK         0.0284 
     36 CB        -73.4434   23.3725  -78.2908 C.3       7 UNK        -0.1958 
     37 N         -74.3017   25.4297  -77.2791 N.am      7 UNK        -0.4454 
     38 C         -74.3847   26.7045  -76.8758 C.2       7 UNK         0.5089 
     39 O         -73.4860   27.5251  -77.0406 O.2       7 UNK        -0.5125 
     40 CA        -75.6333   27.1167  -76.0830 C.3       6 UNK         0.0408 
     41 CB        -76.7118   27.6825  -77.0178 C.3       6 UNK        -0.1791 
     42 N         -76.2011   26.0329  -75.2796 N.am      6 UNK        -0.4762 
     43 C         -75.5780   25.3788  -74.2881 C.2       6 UNK         0.5007 
     44 O         -74.4222   25.6124  -73.9340 O.2       6 UNK        -0.5032 
     45 CA        -76.3709   24.2344  -73.6305 C.3       5 UNK         0.0783 
     46 C46       -77.4774   24.7681  -72.6789 C.3       11 UNK        -0.0857 
     47 S47       -77.0985   24.4636  -70.9253 S.3       11 UNK        -0.2512 
     48 C48       -76.0884   25.9186  -70.5049 C.3       11 UNK         0.0225 
     49 N         -76.9297   23.3684  -74.6677 N.am      5 UNK        -0.4615 
     50 C         -76.2526   22.4187  -75.3239 C.2       4 UNK         0.5053 
     51 O         -75.0889   22.1096  -75.0709 O.2       4 UNK        -0.5105 
     52 CA        -76.9967   21.6929  -76.4604 C.3       4 UNK         0.0263 
     53 CB        -77.5709   20.3586  -75.9579 C.3       4 UNK        -0.1981 
     54 N         -78.0764   22.4909  -77.0515 N.am      4 UNK        -0.4224 
     55 C         -77.8841   23.5941  -77.7880 C.2       3 UNK         0.4895 
     56 O         -76.7739   24.0418  -78.0728 O.2       3 UNK        -0.5091 
     57 CA        -79.1439   24.3566  -78.2338 C.3       3 UNK         0.0250 
     58 CB        -79.7449   23.7163  -79.4953 C.3       3 UNK        -0.1996 
     59 N         -80.1791   24.4745  -77.1967 N.am      3 UNK        -0.4254 
     60 C         -79.9956   25.0362  -75.9938 C.2       2 UNK         0.5004 
     61 O         -78.9025   25.4278  -75.5792 O.2       2 UNK        -0.5226 
     62 CA        -81.2183   25.1601  -75.0813 C.3       2 UNK         0.0269 
     63 CB        -81.4510   23.8648  -74.2845 C.3       2 UNK        -0.1926 
     64 N         -80.9742   26.2710  -74.1639 N.am      2 UNK        -0.4687 
     65 C         -81.9058   27.1142  -73.7119 C.2       1 UNK         0.5165 
     66 O         -83.1138   26.9707  -73.9201 O.2       1 UNK        -0.5079 
     67 H67       -83.0071   31.2204  -75.9156 H         1 UNK         0.0900 
     68 H68       -81.7145   32.1760  -75.1846 H         1 UNK         0.0900 
     69 H69       -83.1174   31.7067  -74.2226 H         1 UNK         0.0900 
     70 H70       -82.6785   30.0096  -72.8312 H         1 UNK         0.2959 
     71 H71       -80.3313   28.4016  -72.9876 H         1 UNK         0.1079 
     72 H72       -82.8149   27.9301  -71.2523 H         1 UNK         0.0837 
     73 H73       -81.2287   27.2524  -70.9959 H         1 UNK         0.0837 
     74 H74       -79.7365   29.7264  -68.5789 H         1 UNK         0.0685 
     75 H75       -80.2850   28.0850  -68.8063 H         1 UNK         0.0685 
     76 H76       -78.4323   26.7195  -69.3491 H         1 UNK         0.1434 
     77 H77       -75.3817   28.0409  -72.0491 H         1 UNK         0.1329 
     78 H78       -78.6247   30.6557  -71.0465 H         1 UNK         0.1335 
     79 H79       -76.7151   31.5327  -72.2210 H         1 UNK         0.0680 
     80 H80       -75.2343   30.6067  -72.2665 H         1 UNK         0.0680 
     81 H81       -75.2718   32.3316  -74.1781 H         1 UNK         0.1032 
     82 H82       -76.1564   32.1691  -75.6662 H         1 UNK         0.1032 
     83 H83       -74.5450   30.4902  -76.5189 H         1 UNK         0.0461 
     84 H84       -74.2643   32.0867  -78.1325 H         1 UNK         0.3453 
     85 H85       -73.1938   33.4495  -77.9386 H         1 UNK         0.3453 
     86 H86       -73.8273   30.0661  -73.9126 H         1 UNK         0.2984 
     87 H87       -70.5671   29.1539  -73.9191 H         1 UNK         0.0554 
     88 H88       -71.7223   28.3139  -71.9117 H         1 UNK         0.0847 
     89 H89       -73.2887   28.4441  -72.6909 H         1 UNK         0.0847 
     90 H90       -72.3655   29.8965  -72.2867 H         1 UNK         0.0847 
     91 H91       -72.2258   27.2584  -75.3156 H         1 UNK         0.3141 
     92 H92       -70.0166   24.7547  -75.1113 H         1 UNK         0.0743 
     93 H93       -72.2019   24.3129  -73.0068 H         1 UNK         0.0784 
     94 H94       -71.3960   23.0354  -73.9158 H         1 UNK         0.0784 
     95 H95       -70.4803   24.0283  -72.7949 H         1 UNK         0.0784 
     96 H96       -72.9853   25.0397  -75.2955 H         1 UNK         0.3213 
     97 H97       -72.8756   25.3838  -78.7836 H         1 UNK         0.0855 
     98 H98       -73.7223   22.7640  -77.4299 H         1 UNK         0.0814 
     99 H99       -72.5852   22.8938  -78.7646 H         1 UNK         0.0814 
    100 H100      -74.2655   23.3399  -79.0059 H         1 UNK         0.0814 
    101 H101      -75.1274   24.8450  -77.1932 H         1 UNK         0.3105 
    102 H102      -75.3276   27.9026  -75.3914 H         1 UNK         0.0547 
    103 H103      -76.3276   28.5291  -77.5881 H         1 UNK         0.0837 
    104 H104      -77.0581   26.9344  -77.7311 H         1 UNK         0.0837 
    105 H105      -77.5766   28.0367  -76.4557 H         1 UNK         0.0837 
    106 H106      -77.1686   25.7822  -75.4830 H         1 UNK         0.3020 
    107 H107      -75.6536   23.6422  -73.0566 H         1 UNK         0.1245 
    108 H108      -78.4229   24.2587  -72.8680 H         1 UNK         0.0781 
    109 H109      -77.7028   25.8246  -72.8371 H         1 UNK         0.0781 
    110 H110      -75.1771   25.8986  -71.1053 H         1 UNK         0.0836 
    111 H111      -75.7692   25.8353  -69.4652 H         1 UNK         0.0836 
    112 H112      -77.8568   23.6100  -74.9899 H         1 UNK         0.3022 
    113 H113      -76.2661   21.4788  -77.2438 H         1 UNK         0.0747 
    114 H114      -78.0336   19.7949  -76.7682 H         1 UNK         0.0793 
    115 H115      -76.7849   19.7301  -75.5366 H         1 UNK         0.0793 
    116 H116      -78.3206   20.5080  -75.1798 H         1 UNK         0.0793 
    117 H117      -79.0236   22.1950  -76.8643 H         1 UNK         0.3047 
    118 H118      -78.8301   25.3707  -78.4894 H         1 UNK         0.0822 
    119 H119      -80.5643   24.3155  -79.8929 H         1 UNK         0.0807 
    120 H120      -80.1259   22.7131  -79.2999 H         1 UNK         0.0807 
    121 H121      -78.9964   23.6325  -80.2848 H         1 UNK         0.0807 
    122 H122      -81.1053   24.1607  -77.4503 H         1 UNK         0.2946 
    123 H123      -82.0913   25.3755  -75.7023 H         1 UNK         0.1144 
    124 H124      -80.5933   23.6111  -73.6615 H         1 UNK         0.0793 
    125 H125      -81.6336   23.0206  -74.9505 H         1 UNK         0.0793 
    126 H126      -82.3202   23.9544  -73.6326 H         1 UNK         0.0793 
    127 H127      -79.9927   26.4782  -74.0257 H         1 UNK         0.2896 
@<TRIPOS>BOND
     1    1    2 1    
     2    1   67 1    
     3    1   68 1    
     4    1   69 1    
     5    2    3 2    
     6    2    4 am   BACKBONE|DICT|INTERRES
     7    4    5 1    
     8    4   70 1    
     9    5    6 1    
    10    5   65 1    
    11    5   71 1    
    12    6    7 1    
    13    6   72 1    
    14    6   73 1    
    15    7    8 1    
    16    8    9 1    
    17    8   74 1    
    18    8   75 1    
    19    9   10 ar   
    20    9   14 ar   
    21   10   11 ar   
    22   10   76 1    
    23   11   12 ar   
    24   11   48 1    
    25   12   13 ar   
    26   12   77 1    
    27   13   14 ar   
    28   13   15 1    
    29   14   78 1    
    30   15   16 1    
    31   15   79 1    
    32   15   80 1    
    33   16   17 1    
    34   17   18 1    
    35   17   81 1    
    36   17   82 1    
    37   18   19 1    
    38   18   22 1    
    39   18   83 1    
    40   19   20 am   BACKBONE|DICT|INTERRES
    41   19   21 2    
    42   20   84 1    
    43   20   85 1    
    44   22   23 am   BACKBONE|DICT|INTERRES
    45   22   86 1    
    46   23   24 2    
    47   23   25 1    
    48   25   26 1    
    49   25   27 1    
    50   25   87 1    
    51   26   88 1    
    52   26   89 1    
    53   26   90 1    
    54   27   28 am   BACKBONE|DICT|INTERRES
    55   27   91 1    
    56   28   29 2    
    57   28   30 1    
    58   30   31 1    
    59   30   32 1    
    60   30   92 1    
    61   31   93 1    
    62   31   94 1    
    63   31   95 1    
    64   32   33 am   BACKBONE|DICT|INTERRES
    65   32   96 1    
    66   33   34 2    
    67   33   35 1    
    68   35   36 1    
    69   35   37 1    
    70   35   97 1    
    71   36   98 1    
    72   36   99 1    
    73   36  100 1    
    74   37   38 am   BACKBONE|DICT|INTERRES
    75   37  101 1    
    76   38   39 2    
    77   38   40 1    
    78   40   41 1    
    79   40   42 1    
    80   40  102 1    
    81   41  103 1    
    82   41  104 1    
    83   41  105 1    
    84   42   43 am   BACKBONE|DICT|INTERRES
    85   42  106 1    
    86   43   44 2    
    87   43   45 1    
    88   45   46 1    
    89   45   49 1    
    90   45  107 1    
    91   46   47 1    
    92   46  108 1    
    93   46  109 1    
    94   47   48 1    
    95   48  110 1    
    96   48  111 1    
    97   49   50 am   BACKBONE|DICT|INTERRES
    98   49  112 1    
    99   50   51 2    
   100   50   52 1    
   101   52   53 1    
   102   52   54 1    
   103   52  113 1    
   104   53  114 1    
   105   53  115 1    
   106   53  116 1    
   107   54   55 am   BACKBONE|DICT|INTERRES
   108   54  117 1    
   109   55   56 2    
   110   55   57 1    
   111   57   58 1    
   112   57   59 1    
   113   57  118 1    
   114   58  119 1    
   115   58  120 1    
   116   58  121 1    
   117   59   60 am   BACKBONE|DICT|INTERRES
   118   59  122 1    
   119   60   61 2    
   120   60   62 1    
   121   62   63 1    
   122   62   64 1    
   123   62  123 1    
   124   63  124 1    
   125   63  125 1    
   126   63  126 1    
   127   64   65 am   BACKBONE|DICT|INTERRES
   128   64  127 1    
   129   65   66 2    
@<TRIPOS>SUBSTRUCTURE
     1 UNK         1 GROUP             0       ****    0 ROOT    
