@<TRIPOS>MOLECULE
3R135
127   129    1
SMALL
USER_CHARGES


@<TRIPOS>ATOM
      1 CA        -78.9897   30.3169  -76.0312 C.3       0 UNK        -0.1998 
      2 C         -79.2823   29.3053  -74.9344 C.2       0 UNK         0.4909 
      3 O         -78.4996   28.3778  -74.7389 O.2       0 UNK        -0.5240 
      4 N         -80.4051   29.4713  -74.2225 N.am      1 UNK        -0.4739 
      5 CA        -80.8632   28.5678  -73.1643 C.3       1 UNK         0.0864 
      6 C6        -81.7607   29.3090  -72.1384 C.3       11 UNK        -0.0881 
      7 S7        -81.9965   28.3426  -70.6049 S.3       11 UNK        -0.2682 
      8 C8        -80.8668   29.1738  -69.4441 C.3       11 UNK         0.0289 
      9 C9        -79.4179   29.1095  -69.9055 C.ar      11 UNK        -0.0687 
     10 C10       -78.7069   27.9080  -69.8398 C.ar      11 UNK        -0.0823 
     11 C11       -77.3757   27.8456  -70.2643 C.ar      11 UNK        -0.0830 
     12 C12       -76.7499   29.0048  -70.7386 C.ar      11 UNK        -0.1021 
     13 C13       -77.4498   30.2146  -70.8004 C.ar      11 UNK        -0.0753 
     14 C14       -78.7846   30.2571  -70.3891 C.ar      11 UNK        -0.0933 
     15 C15       -76.7677   31.4906  -71.2735 C.3       11 UNK         0.0166 
     16 S16       -76.6219   31.5633  -73.0871 S.3       11 UNK        -0.2615 
     17 C17       -74.9069   30.9922  -73.3473 C.3       11 UNK        -0.0865 
     18 CA        -74.7688   29.9298  -74.4797 C.3       10 UNK         0.0862 
     19 C         -74.7219   30.5148  -75.9242 C.2       10 UNK         0.5551 
     20 N         -75.3383   31.6619  -76.1707 N.am      10 UNK        -0.7319 
     21 O         -74.1760   29.9079  -76.8443 O.2       10 UNK        -0.5018 
     22 N         -73.6741   28.9834  -74.2172 N.am      10 UNK        -0.4509 
     23 C         -72.3841   29.2939  -74.0287 C.2       10 UNK         0.4899 
     24 O         -71.9420   30.4427  -74.0319 O.2       10 UNK        -0.4839 
     25 CA        -71.4223   28.1256  -73.7772 C.3       9 UNK         0.0222 
     26 CB        -71.5839   27.5736  -72.3487 C.3       9 UNK        -0.1966 
     27 N         -71.6144   27.0609  -74.7598 N.am      9 UNK        -0.4218 
     28 C         -70.6667   26.2132  -75.1780 C.2       9 UNK         0.5020 
     29 O         -69.5139   26.1968  -74.7433 O.2       9 UNK        -0.5274 
     30 CA        -71.0681   25.2236  -76.2863 C.3       8 UNK         0.0270 
     31 CB        -71.7430   23.9782  -75.6880 C.3       8 UNK        -0.1976 
     32 N         -71.9542   25.8282  -77.2833 N.am      8 UNK        -0.4313 
     33 C         -71.6069   26.7973  -78.1403 C.2       8 UNK         0.5041 
     34 O         -70.4578   27.2274  -78.2484 O.2       8 UNK        -0.5577 
     35 CA        -72.7156   27.4215  -79.0085 C.3       7 UNK         0.0284 
     36 CB        -72.7975   26.7439  -80.3908 C.3       7 UNK        -0.1958 
     37 N         -74.0292   27.4974  -78.3518 N.am      7 UNK        -0.4454 
     38 C         -74.8678   26.5034  -78.0336 C.2       7 UNK         0.5089 
     39 O         -74.6551   25.3145  -78.2781 O.2       7 UNK        -0.5125 
     40 CA        -76.1387   26.9075  -77.2703 C.3       6 UNK         0.0408 
     41 CB        -77.3742   26.7973  -78.1762 C.3       6 UNK        -0.1791 
     42 N         -76.3567   26.1050  -76.0667 N.am      6 UNK        -0.4762 
     43 C         -75.4935   25.9436  -75.0545 C.2       6 UNK         0.5007 
     44 O         -74.3580   26.4192  -75.0349 O.2       6 UNK        -0.5032 
     45 CA        -75.9866   25.1456  -73.8391 C.3       5 UNK         0.0783 
     46 C46       -76.8881   26.0416  -72.9576 C.3       11 UNK        -0.0857 
     47 S47       -77.2769   25.2832  -71.3486 S.3       11 UNK        -0.2512 
     48 C48       -76.6134   26.5274  -70.1923 C.3       11 UNK         0.0225 
     49 N         -76.6757   23.9317  -74.2789 N.am      5 UNK        -0.4615 
     50 C         -76.0991   22.7319  -74.4174 C.2       4 UNK         0.5053 
     51 O         -74.9135   22.5119  -74.1692 O.2       4 UNK        -0.5105 
     52 CA        -76.9911   21.5670  -74.8893 C.3       4 UNK         0.0263 
     53 CB        -77.4669   20.7407  -73.6831 C.3       4 UNK        -0.1981 
     54 N         -78.1596   22.0070  -75.6556 N.am      4 UNK        -0.4224 
     55 C         -78.1223   22.4139  -76.9324 C.2       3 UNK         0.4895 
     56 O         -77.1132   22.3668  -77.6353 O.2       3 UNK        -0.5091 
     57 CA        -79.4263   22.9830  -77.5287 C.3       3 UNK         0.0250 
     58 CB        -80.1659   21.8989  -78.3294 C.3       3 UNK        -0.1996 
     59 N         -80.3513   23.5782  -76.5522 N.am      3 UNK        -0.4254 
     60 C         -80.0521   24.5958  -75.7339 C.2       2 UNK         0.5004 
     61 O         -78.9326   25.1049  -75.6649 O.2       2 UNK        -0.5226 
     62 CA        -81.1604   25.0923  -74.8021 C.3       2 UNK         0.0269 
     63 CB        -81.4293   24.0776  -73.6750 C.3       2 UNK        -0.1926 
     64 N         -80.7397   26.3626  -74.2174 N.am      2 UNK        -0.4687 
     65 C         -81.5491   27.3332  -73.7889 C.2       1 UNK         0.5165 
     66 O         -82.7769   27.2890  -73.8960 O.2       1 UNK        -0.5079 
     67 H67       -78.8352   29.8056  -76.9809 H         1 UNK         0.0900 
     68 H68       -78.0837   30.8717  -75.7926 H         1 UNK         0.0900 
     69 H69       -79.8033   31.0310  -76.1566 H         1 UNK         0.0900 
     70 H70       -81.0267   30.2353  -74.4463 H         1 UNK         0.2959 
     71 H71       -79.9808   28.2136  -72.6244 H         1 UNK         0.1079 
     72 H72       -81.3161   30.2708  -71.8795 H         1 UNK         0.0837 
     73 H73       -82.7380   29.5460  -72.5629 H         1 UNK         0.0837 
     74 H74       -81.1881   30.2079  -69.3097 H         1 UNK         0.0685 
     75 H75       -80.9542   28.6985  -68.4661 H         1 UNK         0.0685 
     76 H76       -79.1946   27.0163  -69.4695 H         1 UNK         0.1434 
     77 H77       -75.7175   28.9678  -71.0567 H         1 UNK         0.1329 
     78 H78       -79.3295   31.1901  -70.4361 H         1 UNK         0.1335 
     79 H79       -77.3395   32.3609  -70.9477 H         1 UNK         0.0680 
     80 H80       -75.7903   31.5914  -70.8000 H         1 UNK         0.0680 
     81 H81       -74.5437   30.5687  -72.4108 H         1 UNK         0.1032 
     82 H82       -74.2647   31.8544  -73.5362 H         1 UNK         0.1032 
     83 H83       -75.6631   29.3050  -74.4608 H         1 UNK         0.0461 
     84 H84       -75.3262   32.0399  -77.1045 H         1 UNK         0.3453 
     85 H85       -75.8153   32.1516  -75.4286 H         1 UNK         0.3453 
     86 H86       -73.9350   28.0039  -74.2881 H         1 UNK         0.2984 
     87 H87       -70.4090   28.5199  -73.8818 H         1 UNK         0.0554 
     88 H88       -70.8284   26.8194  -72.1279 H         1 UNK         0.0847 
     89 H89       -72.5636   27.1179  -72.1996 H         1 UNK         0.0847 
     90 H90       -71.4745   28.3668  -71.6080 H         1 UNK         0.0847 
     91 H91       -72.5493   26.9604  -75.1468 H         1 UNK         0.3141 
     92 H92       -70.1559   24.9067  -76.7962 H         1 UNK         0.0743 
     93 H93       -72.6760   24.2247  -75.1794 H         1 UNK         0.0784 
     94 H94       -71.9686   23.2402  -76.4579 H         1 UNK         0.0784 
     95 H95       -71.0925   23.4954  -74.9575 H         1 UNK         0.0784 
     96 H96       -72.9182   25.5098  -77.3079 H         1 UNK         0.3213 
     97 H97       -72.4224   28.4598  -79.1736 H         1 UNK         0.0855 
     98 H98       -71.8432   26.8183  -80.9138 H         1 UNK         0.0814 
     99 H99       -73.5502   27.2170  -81.0212 H         1 UNK         0.0814 
    100 H100      -73.0392   25.6835  -80.3154 H         1 UNK         0.0814 
    101 H101      -74.2507   28.4230  -77.9868 H         1 UNK         0.3105 
    102 H102      -76.0490   27.9453  -76.9471 H         1 UNK         0.0547 
    103 H103      -77.2616   27.4119  -79.0700 H         1 UNK         0.0837 
    104 H104      -77.5396   25.7696  -78.5019 H         1 UNK         0.0837 
    105 H105      -78.2738   27.1338  -77.6599 H         1 UNK         0.0837 
    106 H106      -77.2869   25.7012  -75.9674 H         1 UNK         0.3020 
    107 H107      -75.1037   24.8746  -73.2550 H         1 UNK         0.1245 
    108 H108      -77.8328   26.2491  -73.4589 H         1 UNK         0.0781 
    109 H109      -76.4192   27.0136  -72.7939 H         1 UNK         0.0781 
    110 H110      -75.5515   26.6764  -70.3946 H         1 UNK         0.0836 
    111 H111      -76.6776   26.1340  -69.1768 H         1 UNK         0.0836 
    112 H112      -77.6352   24.0570  -74.5784 H         1 UNK         0.3022 
    113 H113      -76.3806   20.9218  -75.5250 H         1 UNK         0.0747 
    114 H114      -78.0462   19.8729  -73.9992 H         1 UNK         0.0793 
    115 H115      -76.6185   20.3692  -73.1065 H         1 UNK         0.0793 
    116 H116      -78.0858   21.3318  -73.0066 H         1 UNK         0.0793 
    117 H117      -79.0383   22.0598  -75.1620 H         1 UNK         0.3047 
    118 H118      -79.1359   23.7768  -78.2202 H         1 UNK         0.0822 
    119 H119      -81.0284   22.3103  -78.8543 H         1 UNK         0.0807 
    120 H120      -80.5162   21.0904  -77.6866 H         1 UNK         0.0807 
    121 H121      -79.5132   21.4560  -79.0833 H         1 UNK         0.0807 
    122 H122      -81.2885   23.2012  -76.5361 H         1 UNK         0.2946 
    123 H123      -82.0648   25.2425  -75.3962 H         1 UNK         0.1144 
    124 H124      -81.7528   23.1154  -74.0734 H         1 UNK         0.0793 
    125 H125      -82.2168   24.4276  -73.0073 H         1 UNK         0.0793 
    126 H126      -80.5371   23.9013  -73.0720 H         1 UNK         0.0793 
    127 H127      -79.7394   26.5350  -74.2495 H         1 UNK         0.2896 
@<TRIPOS>BOND
     1    1    2 1    
     2    1   67 1    
     3    1   68 1    
     4    1   69 1    
     5    2    3 2    
     6    2    4 am   BACKBONE|DICT|INTERRES
     7    4    5 1    
     8    4   70 1    
     9    5    6 1    
    10    5   65 1    
    11    5   71 1    
    12    6    7 1    
    13    6   72 1    
    14    6   73 1    
    15    7    8 1    
    16    8    9 1    
    17    8   74 1    
    18    8   75 1    
    19    9   10 ar   
    20    9   14 ar   
    21   10   11 ar   
    22   10   76 1    
    23   11   12 ar   
    24   11   48 1    
    25   12   13 ar   
    26   12   77 1    
    27   13   14 ar   
    28   13   15 1    
    29   14   78 1    
    30   15   16 1    
    31   15   79 1    
    32   15   80 1    
    33   16   17 1    
    34   17   18 1    
    35   17   81 1    
    36   17   82 1    
    37   18   19 1    
    38   18   22 1    
    39   18   83 1    
    40   19   20 am   BACKBONE|DICT|INTERRES
    41   19   21 2    
    42   20   84 1    
    43   20   85 1    
    44   22   23 am   BACKBONE|DICT|INTERRES
    45   22   86 1    
    46   23   24 2    
    47   23   25 1    
    48   25   26 1    
    49   25   27 1    
    50   25   87 1    
    51   26   88 1    
    52   26   89 1    
    53   26   90 1    
    54   27   28 am   BACKBONE|DICT|INTERRES
    55   27   91 1    
    56   28   29 2    
    57   28   30 1    
    58   30   31 1    
    59   30   32 1    
    60   30   92 1    
    61   31   93 1    
    62   31   94 1    
    63   31   95 1    
    64   32   33 am   BACKBONE|DICT|INTERRES
    65   32   96 1    
    66   33   34 2    
    67   33   35 1    
    68   35   36 1    
    69   35   37 1    
    70   35   97 1    
    71   36   98 1    
    72   36   99 1    
    73   36  100 1    
    74   37   38 am   BACKBONE|DICT|INTERRES
    75   37  101 1    
    76   38   39 2    
    77   38   40 1    
    78   40   41 1    
    79   40   42 1    
    80   40  102 1    
    81   41  103 1    
    82   41  104 1    
    83   41  105 1    
    84   42   43 am   BACKBONE|DICT|INTERRES
    85   42  106 1    
    86   43   44 2    
    87   43   45 1    
    88   45   46 1    
    89   45   49 1    
    90   45  107 1    
    91   46   47 1    
    92   46  108 1    
    93   46  109 1    
    94   47   48 1    
    95   48  110 1    
    96   48  111 1    
    97   49   50 am   BACKBONE|DICT|INTERRES
    98   49  112 1    
    99   50   51 2    
   100   50   52 1    
   101   52   53 1    
   102   52   54 1    
   103   52  113 1    
   104   53  114 1    
   105   53  115 1    
   106   53  116 1    
   107   54   55 am   BACKBONE|DICT|INTERRES
   108   54  117 1    
   109   55   56 2    
   110   55   57 1    
   111   57   58 1    
   112   57   59 1    
   113   57  118 1    
   114   58  119 1    
   115   58  120 1    
   116   58  121 1    
   117   59   60 am   BACKBONE|DICT|INTERRES
   118   59  122 1    
   119   60   61 2    
   120   60   62 1    
   121   62   63 1    
   122   62   64 1    
   123   62  123 1    
   124   63  124 1    
   125   63  125 1    
   126   63  126 1    
   127   64   65 am   BACKBONE|DICT|INTERRES
   128   64  127 1    
   129   65   66 2    
@<TRIPOS>SUBSTRUCTURE
     1 UNK         1 GROUP             0       ****    0 ROOT    
