@<TRIPOS>MOLECULE
3R135
127   129    1
SMALL
USER_CHARGES


@<TRIPOS>ATOM
      1 CA        -85.3744   27.0170  -72.4396 C.3       0 UNK        -0.1998 
      2 C         -84.2325   27.7162  -73.1617 C.2       0 UNK         0.4909 
      3 O         -84.4776   28.5046  -74.0752 O.2       0 UNK        -0.5240 
      4 N         -82.9871   27.4359  -72.7556 N.am      1 UNK        -0.4739 
      5 CA        -81.7620   28.0082  -73.3335 C.3       1 UNK         0.0864 
      6 C6        -80.5202   27.7152  -72.4583 C.3       11 UNK        -0.0881 
      7 S7        -80.7081   28.2752  -70.7289 S.3       11 UNK        -0.2682 
      8 C8        -79.4084   29.5510  -70.5845 C.3       11 UNK         0.0289 
      9 C9        -78.0079   29.0591  -70.9456 C.ar      11 UNK        -0.0687 
     10 C10       -77.5672   27.7803  -70.5853 C.ar      11 UNK        -0.0823 
     11 C11       -76.3053   27.3190  -70.9774 C.ar      11 UNK        -0.0830 
     12 C12       -75.4601   28.1748  -71.6922 C.ar      11 UNK        -0.1021 
     13 C13       -75.8659   29.4737  -72.0129 C.ar      11 UNK        -0.0753 
     14 C14       -77.1439   29.9039  -71.6478 C.ar      11 UNK        -0.0933 
     15 C15       -74.9179   30.4293  -72.7217 C.3       11 UNK         0.0166 
     16 S16       -75.3181   30.5880  -74.4871 S.3       11 UNK        -0.2615 
     17 C17       -74.2241   31.9602  -74.9881 C.3       11 UNK        -0.0865 
     18 CA        -72.9475   31.4789  -75.7252 C.3       10 UNK         0.0862 
     19 C         -72.2187   32.6825  -76.3843 C.2       10 UNK         0.5551 
     20 N         -72.5184   32.9757  -77.6420 N.am      10 UNK        -0.7319 
     21 O         -71.4242   33.3765  -75.7519 O.2       10 UNK        -0.5018 
     22 N         -72.0680   30.7142  -74.8292 N.am      10 UNK        -0.4509 
     23 C         -70.9829   30.0296  -75.2098 C.2       10 UNK         0.4899 
     24 O         -70.6164   29.9152  -76.3805 O.2       10 UNK        -0.4839 
     25 CA        -70.1494   29.3464  -74.1067 C.3       9 UNK         0.0222 
     26 CB        -70.4388   29.8521  -72.6732 C.3       9 UNK        -0.1966 
     27 N         -70.2613   27.8860  -74.1927 N.am      9 UNK        -0.4218 
     28 C         -71.3821   27.1628  -74.0609 C.2       9 UNK         0.5020 
     29 O         -72.4756   27.6286  -73.7349 O.2       9 UNK        -0.5274 
     30 CA        -71.2617   25.6575  -74.3312 C.3       8 UNK         0.0270 
     31 CB        -71.4657   24.8479  -73.0395 C.3       8 UNK        -0.1976 
     32 N         -72.2822   25.2878  -75.3081 N.am      8 UNK        -0.4313 
     33 C         -72.1036   25.3324  -76.6366 C.2       8 UNK         0.5041 
     34 O         -71.0085   25.5203  -77.1695 O.2       8 UNK        -0.5577 
     35 CA        -73.3444   25.1511  -77.5342 C.3       7 UNK         0.0284 
     36 CB        -73.4545   23.6935  -78.0085 C.3       7 UNK        -0.1958 
     37 N         -74.5920   25.5553  -76.8795 N.am      7 UNK        -0.4454 
     38 C         -74.8789   26.8155  -76.5215 C.2       7 UNK         0.5089 
     39 O         -74.2211   27.7858  -76.8983 O.2       7 UNK        -0.5125 
     40 CA        -76.0692   27.0471  -75.5694 C.3       6 UNK         0.0408 
     41 CB        -77.1866   27.8563  -76.2480 C.3       6 UNK        -0.1791 
     42 N         -76.6471   25.8482  -74.9514 N.am      6 UNK        -0.4762 
     43 C         -76.0184   25.0420  -74.0809 C.2       6 UNK         0.5007 
     44 O         -74.8093   25.0842  -73.8591 O.2       6 UNK        -0.5032 
     45 CA        -76.8873   24.0066  -73.3482 C.3       5 UNK         0.0783 
     46 C46       -77.7948   24.6873  -72.2882 C.3       11 UNK        -0.0857 
     47 S47       -77.1018   24.6169  -70.6014 S.3       11 UNK        -0.2512 
     48 C48       -75.8154   25.9192  -70.6097 C.3       11 UNK         0.0225 
     49 N         -77.6580   23.2486  -74.3333 N.am      5 UNK        -0.4615 
     50 C         -77.3474   22.0143  -74.7527 C.2       4 UNK         0.5053 
     51 O         -76.4654   21.3186  -74.2486 O.2       4 UNK        -0.5105 
     52 CA        -78.1335   21.4603  -75.9578 C.3       4 UNK         0.0263 
     53 CB        -79.3303   20.6233  -75.4785 C.3       4 UNK        -0.1981 
     54 N         -78.6088   22.4949  -76.8813 N.am      4 UNK        -0.4224 
     55 C         -77.8280   23.3759  -77.5243 C.2       3 UNK         0.4895 
     56 O         -76.5995   23.3628  -77.4761 O.2       3 UNK        -0.5091 
     57 CA        -78.5289   24.4996  -78.3078 C.3       3 UNK         0.0250 
     58 CB        -78.6283   24.1271  -79.7953 C.3       3 UNK        -0.1996 
     59 N         -79.8618   24.8705  -77.8102 N.am      3 UNK        -0.4254 
     60 C         -80.1736   25.2340  -76.5567 C.2       2 UNK         0.5004 
     61 O         -79.3645   25.2566  -75.6230 O.2       2 UNK        -0.5226 
     62 CA        -81.6579   25.5537  -76.3062 C.3       2 UNK         0.0269 
     63 CB        -82.4896   24.2592  -76.2938 C.3       2 UNK        -0.1926 
     64 N         -81.8741   26.2511  -75.0387 N.am      2 UNK        -0.4687 
     65 C         -81.5066   27.5124  -74.7726 C.2       1 UNK         0.5165 
     66 O         -80.9958   28.2691  -75.5998 O.2       1 UNK        -0.5079 
     67 H67       -85.9530   26.4193  -73.1434 H         1 UNK         0.0900 
     68 H68       -86.0398   27.7530  -71.9892 H         1 UNK         0.0900 
     69 H69       -85.0148   26.3575  -71.6499 H         1 UNK         0.0900 
     70 H70       -82.8469   26.8085  -71.9762 H         1 UNK         0.2959 
     71 H71       -81.8941   29.0913  -73.3863 H         1 UNK         0.1079 
     72 H72       -79.6359   28.1773  -72.9014 H         1 UNK         0.0837 
     73 H73       -80.3152   26.6432  -72.4345 H         1 UNK         0.0837 
     74 H74       -79.6900   30.3939  -71.2178 H         1 UNK         0.0685 
     75 H75       -79.3948   29.9234  -69.5596 H         1 UNK         0.0685 
     76 H76       -78.2202   27.1333  -70.0169 H         1 UNK         0.1434 
     77 H77       -74.4762   27.8353  -71.9885 H         1 UNK         0.1329 
     78 H78       -77.4626   30.9032  -71.9118 H         1 UNK         0.1335 
     79 H79       -73.8882   30.0863  -72.6164 H         1 UNK         0.0680 
     80 H80       -74.9716   31.4087  -72.2439 H         1 UNK         0.0680 
     81 H81       -73.9660   32.5748  -74.1237 H         1 UNK         0.1032 
     82 H82       -74.8151   32.6053  -75.6415 H         1 UNK         0.1032 
     83 H83       -73.2544   30.7982  -76.5226 H         1 UNK         0.0461 
     84 H84       -73.1756   32.4172  -78.1645 H         1 UNK         0.3453 
     85 H85       -72.0691   33.7632  -78.0829 H         1 UNK         0.3453 
     86 H86       -72.3013   30.7358  -73.8497 H         1 UNK         0.2984 
     87 H87       -69.1078   29.5859  -74.3262 H         1 UNK         0.0554 
     88 H88       -69.7428   29.4117  -71.9593 H         1 UNK         0.0847 
     89 H89       -71.4460   29.6094  -72.3350 H         1 UNK         0.0847 
     90 H90       -70.3182   30.9343  -72.6068 H         1 UNK         0.0847 
     91 H91       -69.4222   27.4071  -74.4901 H         1 UNK         0.3141 
     92 H92       -70.2687   25.4284  -74.7240 H         1 UNK         0.0743 
     93 H93       -72.4292   25.0613  -72.5748 H         1 UNK         0.0784 
     94 H94       -71.4173   23.7760  -73.2316 H         1 UNK         0.0784 
     95 H95       -70.6926   25.0838  -72.3073 H         1 UNK         0.0784 
     96 H96       -73.2274   25.2060  -74.9385 H         1 UNK         0.3213 
     97 H97       -73.2050   25.7850  -78.4125 H         1 UNK         0.0855 
     98 H98       -73.6728   23.0154  -77.1824 H         1 UNK         0.0814 
     99 H99       -72.5242   23.3596  -78.4701 H         1 UNK         0.0814 
    100 H100      -74.2412   23.5791  -78.7542 H         1 UNK         0.0814 
    101 H101      -75.2245   24.8141  -76.6011 H         1 UNK         0.3105 
    102 H102      -75.6782   27.6525  -74.7496 H         1 UNK         0.0547 
    103 H103      -76.7973   28.7864  -76.6641 H         1 UNK         0.0837 
    104 H104      -77.6538   27.3067  -77.0626 H         1 UNK         0.0837 
    105 H105      -77.9670   28.1269  -75.5361 H         1 UNK         0.0837 
    106 H106      -77.6412   25.7030  -75.1155 H         1 UNK         0.3020 
    107 H107      -76.2028   23.3282  -72.8331 H         1 UNK         0.1245 
    108 H108      -78.7537   24.1691  -72.2351 H         1 UNK         0.0781 
    109 H109      -78.0485   25.7171  -72.5461 H         1 UNK         0.0781 
    110 H110      -75.0115   25.6098  -71.2781 H         1 UNK         0.0836 
    111 H111      -75.3732   25.9665  -69.6139 H         1 UNK         0.0836 
    112 H112      -78.3819   23.7649  -74.8240 H         1 UNK         0.3022 
    113 H113      -77.4576   20.8090  -76.5158 H         1 UNK         0.0747 
    114 H114      -79.8441   20.1484  -76.3145 H         1 UNK         0.0793 
    115 H115      -79.0054   19.8275  -74.8066 H         1 UNK         0.0793 
    116 H116      -80.0568   21.2306  -74.9369 H         1 UNK         0.0793 
    117 H117      -79.6084   22.5851  -76.9855 H         1 UNK         0.3047 
    118 H118      -77.8930   25.3813  -78.2267 H         1 UNK         0.0822 
    119 H119      -79.0105   24.9576  -80.3892 H         1 UNK         0.0807 
    120 H120      -79.2829   23.2692  -79.9546 H         1 UNK         0.0807 
    121 H121      -77.6483   23.8685  -80.1997 H         1 UNK         0.0807 
    122 H122      -80.6010   24.8637  -78.4987 H         1 UNK         0.2946 
    123 H123      -82.0094   26.1999  -77.1140 H         1 UNK         0.1144 
    124 H124      -82.1609   23.5756  -75.5097 H         1 UNK         0.0793 
    125 H125      -82.4143   23.7271  -77.2429 H         1 UNK         0.0793 
    126 H126      -83.5470   24.4700  -76.1314 H         1 UNK         0.0793 
    127 H127      -82.2740   25.7096  -74.2869 H         1 UNK         0.2896 
@<TRIPOS>BOND
     1    1    2 1    
     2    1   67 1    
     3    1   68 1    
     4    1   69 1    
     5    2    3 2    
     6    2    4 am   BACKBONE|DICT|INTERRES
     7    4    5 1    
     8    4   70 1    
     9    5    6 1    
    10    5   65 1    
    11    5   71 1    
    12    6    7 1    
    13    6   72 1    
    14    6   73 1    
    15    7    8 1    
    16    8    9 1    
    17    8   74 1    
    18    8   75 1    
    19    9   10 ar   
    20    9   14 ar   
    21   10   11 ar   
    22   10   76 1    
    23   11   12 ar   
    24   11   48 1    
    25   12   13 ar   
    26   12   77 1    
    27   13   14 ar   
    28   13   15 1    
    29   14   78 1    
    30   15   16 1    
    31   15   79 1    
    32   15   80 1    
    33   16   17 1    
    34   17   18 1    
    35   17   81 1    
    36   17   82 1    
    37   18   19 1    
    38   18   22 1    
    39   18   83 1    
    40   19   20 am   BACKBONE|DICT|INTERRES
    41   19   21 2    
    42   20   84 1    
    43   20   85 1    
    44   22   23 am   BACKBONE|DICT|INTERRES
    45   22   86 1    
    46   23   24 2    
    47   23   25 1    
    48   25   26 1    
    49   25   27 1    
    50   25   87 1    
    51   26   88 1    
    52   26   89 1    
    53   26   90 1    
    54   27   28 am   BACKBONE|DICT|INTERRES
    55   27   91 1    
    56   28   29 2    
    57   28   30 1    
    58   30   31 1    
    59   30   32 1    
    60   30   92 1    
    61   31   93 1    
    62   31   94 1    
    63   31   95 1    
    64   32   33 am   BACKBONE|DICT|INTERRES
    65   32   96 1    
    66   33   34 2    
    67   33   35 1    
    68   35   36 1    
    69   35   37 1    
    70   35   97 1    
    71   36   98 1    
    72   36   99 1    
    73   36  100 1    
    74   37   38 am   BACKBONE|DICT|INTERRES
    75   37  101 1    
    76   38   39 2    
    77   38   40 1    
    78   40   41 1    
    79   40   42 1    
    80   40  102 1    
    81   41  103 1    
    82   41  104 1    
    83   41  105 1    
    84   42   43 am   BACKBONE|DICT|INTERRES
    85   42  106 1    
    86   43   44 2    
    87   43   45 1    
    88   45   46 1    
    89   45   49 1    
    90   45  107 1    
    91   46   47 1    
    92   46  108 1    
    93   46  109 1    
    94   47   48 1    
    95   48  110 1    
    96   48  111 1    
    97   49   50 am   BACKBONE|DICT|INTERRES
    98   49  112 1    
    99   50   51 2    
   100   50   52 1    
   101   52   53 1    
   102   52   54 1    
   103   52  113 1    
   104   53  114 1    
   105   53  115 1    
   106   53  116 1    
   107   54   55 am   BACKBONE|DICT|INTERRES
   108   54  117 1    
   109   55   56 2    
   110   55   57 1    
   111   57   58 1    
   112   57   59 1    
   113   57  118 1    
   114   58  119 1    
   115   58  120 1    
   116   58  121 1    
   117   59   60 am   BACKBONE|DICT|INTERRES
   118   59  122 1    
   119   60   61 2    
   120   60   62 1    
   121   62   63 1    
   122   62   64 1    
   123   62  123 1    
   124   63  124 1    
   125   63  125 1    
   126   63  126 1    
   127   64   65 am   BACKBONE|DICT|INTERRES
   128   64  127 1    
   129   65   66 2    
@<TRIPOS>SUBSTRUCTURE
     1 UNK         1 GROUP             0       ****    0 ROOT    
