@<TRIPOS>MOLECULE
3R135
127   129    1
SMALL
USER_CHARGES


@<TRIPOS>ATOM
      1 CA        -84.2528   26.1263  -75.0933 C.3       0 UNK        -0.1998 
      2 C         -83.0423   27.0455  -75.1424 C.2       0 UNK         0.4909 
      3 O         -82.5065   27.2966  -76.2226 O.2       0 UNK        -0.5240 
      4 N         -82.6092   27.5574  -73.9831 N.am      1 UNK        -0.4739 
      5 CA        -81.4444   28.4375  -73.8479 C.3       1 UNK         0.0864 
      6 C6        -81.4134   29.1690  -72.4815 C.3       11 UNK        -0.0881 
      7 S7        -81.4838   28.0750  -71.0180 S.3       11 UNK        -0.2682 
      8 C8        -80.1048   28.7054  -70.0077 C.3       11 UNK         0.0289 
      9 C9        -78.7549   28.2079  -70.5039 C.ar      11 UNK        -0.0687 
     10 C10       -78.3228   26.9215  -70.1712 C.ar      11 UNK        -0.0823 
     11 C11       -77.0800   26.4527  -70.6060 C.ar      11 UNK        -0.0830 
     12 C12       -76.2648   27.2831  -71.3810 C.ar      11 UNK        -0.1021 
     13 C13       -76.6864   28.5718  -71.7242 C.ar      11 UNK        -0.0753 
     14 C14       -77.9299   29.0306  -71.2767 C.ar      11 UNK        -0.0933 
     15 C15       -75.8297   29.4526  -72.6216 C.3       11 UNK         0.0166 
     16 S16       -74.3425   30.0889  -71.7928 S.3       11 UNK        -0.2615 
     17 C17       -73.9666   31.5195  -72.8681 C.3       11 UNK        -0.0865 
     18 CA        -73.5474   31.1379  -74.3210 C.3       10 UNK         0.0862 
     19 C         -73.4897   32.3651  -75.2838 C.2       10 UNK         0.5551 
     20 N         -72.6329   32.3735  -76.2996 N.am      10 UNK        -0.7319 
     21 O         -74.2549   33.3141  -75.1308 O.2       10 UNK        -0.5018 
     22 N         -72.3629   30.2670  -74.3841 N.am      10 UNK        -0.4509 
     23 C         -71.1142   30.6049  -74.0255 C.2       10 UNK         0.4899 
     24 O         -70.8213   31.6606  -73.4638 O.2       10 UNK        -0.4839 
     25 CA        -69.9809   29.6198  -74.3774 C.3       9 UNK         0.0222 
     26 CB        -69.5745   28.8120  -73.1340 C.3       9 UNK        -0.1966 
     27 N         -70.3065   28.6922  -75.4649 N.am      9 UNK        -0.4218 
     28 C         -70.6258   29.0296  -76.7246 C.2       9 UNK         0.5020 
     29 O         -70.5882   30.1827  -77.1567 O.2       9 UNK        -0.5274 
     30 CA        -71.1388   27.8941  -77.6343 C.3       8 UNK         0.0270 
     31 CB        -69.9940   27.3285  -78.4899 C.3       8 UNK        -0.1976 
     32 N         -71.7870   26.7995  -76.8968 N.am      8 UNK        -0.4313 
     33 C         -72.8654   26.9427  -76.1146 C.2       8 UNK         0.5041 
     34 O         -73.4854   28.0005  -75.9892 O.2       8 UNK        -0.5577 
     35 CA        -73.2770   25.7213  -75.2895 C.3       7 UNK         0.0284 
     36 CB        -73.7976   26.1350  -73.9033 C.3       7 UNK        -0.1958 
     37 N         -74.3214   24.9715  -75.9739 N.am      7 UNK        -0.4454 
     38 C         -74.1198   23.9047  -76.7553 C.2       7 UNK         0.5089 
     39 O         -73.0053   23.5089  -77.1026 O.2       7 UNK        -0.5125 
     40 CA        -75.3932   23.1323  -77.1584 C.3       6 UNK         0.0408 
     41 CB        -75.1026   21.7540  -77.7874 C.3       6 UNK        -0.1791 
     42 N         -76.3248   23.0237  -76.0258 N.am      6 UNK        -0.4762 
     43 C         -76.1059   22.4266  -74.8418 C.2       6 UNK         0.5007 
     44 O         -75.1372   21.7038  -74.6060 O.2       6 UNK        -0.5032 
     45 CA        -77.1127   22.7112  -73.7075 C.3       5 UNK         0.0783 
     46 C46       -76.5150   23.7112  -72.6878 C.3       11 UNK        -0.0857 
     47 S47       -77.4986   23.7683  -71.1561 S.3       11 UNK        -0.2512 
     48 C48       -76.6214   25.0558  -70.2149 C.3       11 UNK         0.0225 
     49 N         -78.4020   23.1836  -74.2196 N.am      5 UNK        -0.4615 
     50 C         -79.3741   22.3848  -74.6745 C.2       4 UNK         0.5053 
     51 O         -79.3108   21.1553  -74.6785 O.2       4 UNK        -0.5105 
     52 CA        -80.6196   23.0837  -75.2394 C.3       4 UNK         0.0263 
     53 CB        -81.5872   23.4639  -74.1074 C.3       4 UNK        -0.1981 
     54 N         -80.2663   24.2694  -76.0276 N.am      4 UNK        -0.4224 
     55 C         -79.7121   24.2063  -77.2494 C.2       3 UNK         0.4895 
     56 O         -79.5112   23.1508  -77.8502 O.2       3 UNK        -0.5091 
     57 CA        -79.2925   25.5233  -77.9250 C.3       3 UNK         0.0250 
     58 CB        -80.3632   25.9772  -78.9299 C.3       3 UNK        -0.1996 
     59 N         -79.0201   26.6113  -76.9859 N.am      3 UNK        -0.4254 
     60 C         -77.9691   26.6640  -76.1553 C.2       2 UNK         0.5004 
     61 O         -77.1035   25.7929  -76.0820 O.2       2 UNK        -0.5226 
     62 CA        -77.8830   27.8823  -75.2232 C.3       2 UNK         0.0269 
     63 CB        -77.0880   29.0048  -75.9108 C.3       2 UNK        -0.1926 
     64 N         -79.1856   28.4048  -74.7951 N.am      2 UNK        -0.4687 
     65 C         -80.1293   27.6932  -74.1610 C.2       1 UNK         0.5165 
     66 O         -80.0033   26.5010  -73.8681 O.2       1 UNK        -0.5079 
     67 H67       -84.4461   25.7654  -74.0832 H         1 UNK         0.0900 
     68 H68       -84.0977   25.2621  -75.7386 H         1 UNK         0.0900 
     69 H69       -85.1381   26.6557  -75.4439 H         1 UNK         0.0900 
     70 H70       -83.0506   27.2910  -73.1143 H         1 UNK         0.2959 
     71 H71       -81.5574   29.2093  -74.6131 H         1 UNK         0.1079 
     72 H72       -80.5387   29.8180  -72.4224 H         1 UNK         0.0837 
     73 H73       -82.2698   29.8422  -72.4199 H         1 UNK         0.0837 
     74 H74       -80.1334   29.7959  -69.9821 H         1 UNK         0.0685 
     75 H75       -80.2510   28.3772  -68.9776 H         1 UNK         0.0685 
     76 H76       -78.9583   26.2808  -69.5749 H         1 UNK         0.1434 
     77 H77       -75.2998   26.9302  -71.7131 H         1 UNK         0.1329 
     78 H78       -78.2600   30.0265  -71.5376 H         1 UNK         0.1335 
     79 H79       -76.4212   30.2906  -72.9925 H         1 UNK         0.0680 
     80 H80       -75.5161   28.8815  -73.4948 H         1 UNK         0.0680 
     81 H81       -73.1866   32.1136  -72.3905 H         1 UNK         0.1032 
     82 H82       -74.8510   32.1591  -72.8790 H         1 UNK         0.1032 
     83 H83       -74.3516   30.5336  -74.7397 H         1 UNK         0.0461 
     84 H84       -72.6143   33.1672  -76.9198 H         1 UNK         0.3453 
     85 H85       -72.0001   31.5980  -76.4557 H         1 UNK         0.3453 
     86 H86       -72.5176   29.3891  -74.8691 H         1 UNK         0.2984 
     87 H87       -69.1223   30.2127  -74.6989 H         1 UNK         0.0554 
     88 H88       -68.7177   28.1694  -73.3374 H         1 UNK         0.0847 
     89 H89       -70.3913   28.1841  -72.7754 H         1 UNK         0.0847 
     90 H90       -69.2912   29.4742  -72.3145 H         1 UNK         0.0847 
     91 H91       -70.3604   27.7153  -75.2180 H         1 UNK         0.3141 
     92 H92       -71.8861   28.3274  -78.3025 H         1 UNK         0.0743 
     93 H93       -70.3585   26.5871  -79.2013 H         1 UNK         0.0784 
     94 H94       -69.5124   28.1189  -79.0677 H         1 UNK         0.0784 
     95 H95       -69.2242   26.8579  -77.8770 H         1 UNK         0.0784 
     96 H96       -71.3633   25.8842  -76.9718 H         1 UNK         0.3213 
     97 H97       -72.3993   25.0891  -75.1360 H         1 UNK         0.0855 
     98 H98       -73.0904   26.7903  -73.3925 H         1 UNK         0.0814 
     99 H99       -73.9520   25.2654  -73.2654 H         1 UNK         0.0814 
    100 H100      -74.7443   26.6698  -73.9803 H         1 UNK         0.0814 
    101 H101      -75.2805   25.2821  -75.8355 H         1 UNK         0.3105 
    102 H102      -75.8973   23.7404  -77.9110 H         1 UNK         0.0547 
    103 H103      -74.5180   21.8607  -78.7017 H         1 UNK         0.0837 
    104 H104      -74.5352   21.1093  -77.1159 H         1 UNK         0.0837 
    105 H105      -76.0251   21.2368  -78.0507 H         1 UNK         0.0837 
    106 H106      -77.1198   23.6489  -76.0775 H         1 UNK         0.3020 
    107 H107      -77.2676   21.7582  -73.1953 H         1 UNK         0.1245 
    108 H108      -76.4562   24.7138  -73.1163 H         1 UNK         0.0781 
    109 H109      -75.4971   23.4267  -72.4131 H         1 UNK         0.0781 
    110 H110      -75.5439   24.9442  -70.3464 H         1 UNK         0.0836 
    111 H111      -76.8128   24.9028  -69.1518 H         1 UNK         0.0836 
    112 H112      -78.5523   24.1831  -74.2176 H         1 UNK         0.3022 
    113 H113      -81.1318   22.3747  -75.8938 H         1 UNK         0.0747 
    114 H114      -82.5053   23.8962  -74.5005 H         1 UNK         0.0793 
    115 H115      -81.8694   22.5844  -73.5271 H         1 UNK         0.0793 
    116 H116      -81.1458   24.1800  -73.4136 H         1 UNK         0.0793 
    117 H117      -80.3689   25.1704  -75.5748 H         1 UNK         0.3047 
    118 H118      -78.3716   25.3230  -78.4773 H         1 UNK         0.0822 
    119 H119      -80.0458   26.8662  -79.4751 H         1 UNK         0.0807 
    120 H120      -81.3093   26.2045  -78.4371 H         1 UNK         0.0807 
    121 H121      -80.5601   25.1991  -79.6688 H         1 UNK         0.0807 
    122 H122      -79.6968   27.3608  -76.9510 H         1 UNK         0.2946 
    123 H123      -77.3502   27.5583  -74.3278 H         1 UNK         0.1144 
    124 H124      -76.9958   29.8857  -75.2774 H         1 UNK         0.0793 
    125 H125      -77.5576   29.3183  -76.8440 H         1 UNK         0.0793 
    126 H126      -76.0777   28.6722  -76.1530 H         1 UNK         0.0793 
    127 H127      -79.3693   29.3742  -75.0108 H         1 UNK         0.2896 
@<TRIPOS>BOND
     1    1    2 1    
     2    1   67 1    
     3    1   68 1    
     4    1   69 1    
     5    2    3 2    
     6    2    4 am   BACKBONE|DICT|INTERRES
     7    4    5 1    
     8    4   70 1    
     9    5    6 1    
    10    5   65 1    
    11    5   71 1    
    12    6    7 1    
    13    6   72 1    
    14    6   73 1    
    15    7    8 1    
    16    8    9 1    
    17    8   74 1    
    18    8   75 1    
    19    9   10 ar   
    20    9   14 ar   
    21   10   11 ar   
    22   10   76 1    
    23   11   12 ar   
    24   11   48 1    
    25   12   13 ar   
    26   12   77 1    
    27   13   14 ar   
    28   13   15 1    
    29   14   78 1    
    30   15   16 1    
    31   15   79 1    
    32   15   80 1    
    33   16   17 1    
    34   17   18 1    
    35   17   81 1    
    36   17   82 1    
    37   18   19 1    
    38   18   22 1    
    39   18   83 1    
    40   19   20 am   BACKBONE|DICT|INTERRES
    41   19   21 2    
    42   20   84 1    
    43   20   85 1    
    44   22   23 am   BACKBONE|DICT|INTERRES
    45   22   86 1    
    46   23   24 2    
    47   23   25 1    
    48   25   26 1    
    49   25   27 1    
    50   25   87 1    
    51   26   88 1    
    52   26   89 1    
    53   26   90 1    
    54   27   28 am   BACKBONE|DICT|INTERRES
    55   27   91 1    
    56   28   29 2    
    57   28   30 1    
    58   30   31 1    
    59   30   32 1    
    60   30   92 1    
    61   31   93 1    
    62   31   94 1    
    63   31   95 1    
    64   32   33 am   BACKBONE|DICT|INTERRES
    65   32   96 1    
    66   33   34 2    
    67   33   35 1    
    68   35   36 1    
    69   35   37 1    
    70   35   97 1    
    71   36   98 1    
    72   36   99 1    
    73   36  100 1    
    74   37   38 am   BACKBONE|DICT|INTERRES
    75   37  101 1    
    76   38   39 2    
    77   38   40 1    
    78   40   41 1    
    79   40   42 1    
    80   40  102 1    
    81   41  103 1    
    82   41  104 1    
    83   41  105 1    
    84   42   43 am   BACKBONE|DICT|INTERRES
    85   42  106 1    
    86   43   44 2    
    87   43   45 1    
    88   45   46 1    
    89   45   49 1    
    90   45  107 1    
    91   46   47 1    
    92   46  108 1    
    93   46  109 1    
    94   47   48 1    
    95   48  110 1    
    96   48  111 1    
    97   49   50 am   BACKBONE|DICT|INTERRES
    98   49  112 1    
    99   50   51 2    
   100   50   52 1    
   101   52   53 1    
   102   52   54 1    
   103   52  113 1    
   104   53  114 1    
   105   53  115 1    
   106   53  116 1    
   107   54   55 am   BACKBONE|DICT|INTERRES
   108   54  117 1    
   109   55   56 2    
   110   55   57 1    
   111   57   58 1    
   112   57   59 1    
   113   57  118 1    
   114   58  119 1    
   115   58  120 1    
   116   58  121 1    
   117   59   60 am   BACKBONE|DICT|INTERRES
   118   59  122 1    
   119   60   61 2    
   120   60   62 1    
   121   62   63 1    
   122   62   64 1    
   123   62  123 1    
   124   63  124 1    
   125   63  125 1    
   126   63  126 1    
   127   64   65 am   BACKBONE|DICT|INTERRES
   128   64  127 1    
   129   65   66 2    
@<TRIPOS>SUBSTRUCTURE
     1 UNK         1 GROUP             0       ****    0 ROOT    
