@<TRIPOS>MOLECULE
3R135
127   129    1
SMALL
USER_CHARGES


@<TRIPOS>ATOM
      1 CA        -80.6771   23.1157  -70.3867 C.3       0 UNK        -0.1998 
      2 C         -80.5356   24.1213  -71.5180 C.2       0 UNK         0.4909 
      3 O         -79.6077   24.0046  -72.3184 O.2       0 UNK        -0.5240 
      4 N         -81.4611   25.0892  -71.5990 N.am      1 UNK        -0.4739 
      5 CA        -81.5024   26.2084  -72.5569 C.3       1 UNK         0.0864 
      6 C6        -80.4706   27.3245  -72.2482 C.3       11 UNK        -0.0881 
      7 S7        -80.5359   27.9671  -70.5408 S.3       11 UNK        -0.2682 
      8 C8        -80.0977   29.7244  -70.7863 C.3       11 UNK         0.0289 
      9 C9        -78.8460   29.9015  -71.6391 C.ar      11 UNK        -0.0687 
     10 C10       -78.9264   30.5359  -72.8839 C.ar      11 UNK        -0.0823 
     11 C11       -77.7994   30.6336  -73.7066 C.ar      11 UNK        -0.0830 
     12 C12       -76.5802   30.1153  -73.2596 C.ar      11 UNK        -0.1021 
     13 C13       -76.4789   29.5075  -72.0056 C.ar      11 UNK        -0.0753 
     14 C14       -77.6150   29.4056  -71.1980 C.ar      11 UNK        -0.0933 
     15 C15       -75.1485   28.9357  -71.5414 C.3       11 UNK         0.0166 
     16 S16       -73.9049   30.2401  -71.2999 S.3       11 UNK        -0.2615 
     17 C17       -72.6037   29.3516  -70.3700 C.3       11 UNK        -0.0865 
     18 CA        -71.6133   28.5065  -71.2229 C.3       10 UNK         0.0862 
     19 C         -72.1419   27.0699  -71.4972 C.2       10 UNK         0.5551 
     20 N         -72.1405   26.2118  -70.4858 N.am      10 UNK        -0.7319 
     21 O         -72.5801   26.7326  -72.5937 O.2       10 UNK        -0.5018 
     22 N         -71.1919   29.2142  -72.4394 N.am      10 UNK        -0.4509 
     23 C         -70.0894   28.9435  -73.1471 C.2       10 UNK         0.4899 
     24 O         -69.2244   28.1396  -72.7935 O.2       10 UNK        -0.4839 
     25 CA        -69.9463   29.7157  -74.4739 C.3       9 UNK         0.0222 
     26 CB        -68.6350   29.3971  -75.2249 C.3       9 UNK        -0.1966 
     27 N         -71.1143   29.5362  -75.3494 N.am      9 UNK        -0.4218 
     28 C         -71.5726   28.3838  -75.8655 C.2       9 UNK         0.5020 
     29 O         -71.0283   27.2903  -75.6947 O.2       9 UNK        -0.5274 
     30 CA        -72.8676   28.4999  -76.6969 C.3       8 UNK         0.0270 
     31 CB        -72.6933   29.4057  -77.9355 C.3       8 UNK        -0.1976 
     32 N         -73.4410   27.1992  -77.0649 N.am      8 UNK        -0.4313 
     33 C         -72.9585   26.2793  -77.9155 C.2       8 UNK         0.5041 
     34 O         -71.9562   26.4262  -78.6177 O.2       8 UNK        -0.5577 
     35 CA        -73.7479   24.9617  -78.0113 C.3       7 UNK         0.0284 
     36 CB        -73.4818   24.0750  -76.7834 C.3       7 UNK        -0.1958 
     37 N         -75.1891   25.1744  -78.1596 N.am      7 UNK        -0.4454 
     38 C         -75.7763   25.6956  -79.2470 C.2       7 UNK         0.5089 
     39 O         -75.1736   25.9997  -80.2768 O.2       7 UNK        -0.5125 
     40 CA        -77.2940   25.9336  -79.1660 C.3       6 UNK         0.0408 
     41 CB        -78.0750   24.6386  -79.4407 C.3       6 UNK        -0.1791 
     42 N         -77.6860   26.4880  -77.8693 N.am      6 UNK        -0.4762 
     43 C         -77.4404   27.7505  -77.4856 C.2       6 UNK         0.5007 
     44 O         -76.9456   28.6023  -78.2242 O.2       6 UNK        -0.5032 
     45 CA        -77.7638   28.1152  -76.0239 C.3       5 UNK         0.0783 
     46 C46       -79.1420   28.8062  -75.8797 C.3       11 UNK        -0.0857 
     47 S47       -79.1606   30.6063  -76.1894 S.3       11 UNK        -0.2512 
     48 C48       -77.8805   31.2987  -75.0782 C.3       11 UNK         0.0225 
     49 N         -77.6484   26.9564  -75.1303 N.am      5 UNK        -0.4615 
     50 C         -76.4724   26.4577  -74.7248 C.2       4 UNK         0.5053 
     51 O         -75.3884   26.9330  -75.0568 O.2       4 UNK        -0.5105 
     52 CA        -76.4888   25.1947  -73.8516 C.3       4 UNK         0.0263 
     53 CB        -76.5499   25.5434  -72.3569 C.3       4 UNK        -0.1981 
     54 N         -77.5652   24.2635  -74.1919 N.am      4 UNK        -0.4224 
     55 C         -77.6108   23.5593  -75.3312 C.2       3 UNK         0.4895 
     56 O         -76.8265   23.7256  -76.2652 O.2       3 UNK        -0.5091 
     57 CA        -78.7061   22.4933  -75.4477 C.3       3 UNK         0.0250 
     58 CB        -78.4555   21.3382  -74.4630 C.3       3 UNK        -0.1996 
     59 N         -80.0237   23.0721  -75.1979 N.am      3 UNK        -0.4254 
     60 C         -80.8780   23.4540  -76.1569 C.2       2 UNK         0.5004 
     61 O         -80.6610   23.3184  -77.3613 O.2       2 UNK        -0.5226 
     62 CA        -82.2078   24.0938  -75.7111 C.3       2 UNK         0.0269 
     63 CB        -83.3443   23.0598  -75.7672 C.3       2 UNK        -0.1926 
     64 N         -82.1783   24.6991  -74.3747 N.am      2 UNK        -0.4687 
     65 C         -81.4046   25.7367  -74.0265 C.2       1 UNK         0.5165 
     66 O         -80.6058   26.2687  -74.7997 O.2       1 UNK        -0.5079 
     67 H67       -80.7835   22.1097  -70.7914 H         1 UNK         0.0900 
     68 H68       -79.7887   23.1376  -69.7564 H         1 UNK         0.0900 
     69 H69       -81.5437   23.3246  -69.7598 H         1 UNK         0.0900 
     70 H70       -82.1972   25.1053  -70.9069 H         1 UNK         0.2959 
     71 H71       -82.4944   26.6526  -72.4597 H         1 UNK         0.1079 
     72 H72       -79.4565   26.9769  -72.4414 H         1 UNK         0.0837 
     73 H73       -80.6412   28.1617  -72.9257 H         1 UNK         0.0837 
     74 H74       -80.9488   30.2369  -71.2374 H         1 UNK         0.0685 
     75 H75       -79.9388   30.1904  -69.8130 H         1 UNK         0.0685 
     76 H76       -79.8730   30.9271  -73.2310 H         1 UNK         0.1434 
     77 H77       -75.7000   30.1830  -73.8846 H         1 UNK         0.1329 
     78 H78       -77.5521   28.9174  -70.2351 H         1 UNK         0.1335 
     79 H79       -74.7863   28.2389  -72.2972 H         1 UNK         0.0680 
     80 H80       -75.2724   28.3682  -70.6178 H         1 UNK         0.0680 
     81 H81       -72.0312   30.1161  -69.8426 H         1 UNK         0.1032 
     82 H82       -73.0622   28.7560  -69.5781 H         1 UNK         0.1032 
     83 H83       -70.7145   28.3769  -70.6158 H         1 UNK         0.0461 
     84 H84       -72.4869   25.2780  -70.6394 H         1 UNK         0.3453 
     85 H85       -71.7827   26.4691  -69.5792 H         1 UNK         0.3453 
     86 H86       -71.8674   29.8655  -72.8117 H         1 UNK         0.2984 
     87 H87       -69.9191   30.7743  -74.2109 H         1 UNK         0.0554 
     88 H88       -67.7668   29.6281  -74.6065 H         1 UNK         0.0847 
     89 H89       -68.5475   29.9852  -76.1382 H         1 UNK         0.0847 
     90 H90       -68.5661   28.3434  -75.4972 H         1 UNK         0.0847 
     91 H91       -71.6389   30.3780  -75.5436 H         1 UNK         0.3141 
     92 H92       -73.6120   28.9630  -76.0470 H         1 UNK         0.0743 
     93 H93       -73.6046   29.4347  -78.5335 H         1 UNK         0.0784 
     94 H94       -72.4661   30.4328  -77.6494 H         1 UNK         0.0784 
     95 H95       -71.8818   29.0637  -78.5785 H         1 UNK         0.0784 
     96 H96       -74.2351   26.9322  -76.4850 H         1 UNK         0.3213 
     97 H97       -73.3966   24.4265  -78.8963 H         1 UNK         0.0855 
     98 H98       -73.8305   24.5437  -75.8625 H         1 UNK         0.0814 
     99 H99       -72.4144   23.8830  -76.6664 H         1 UNK         0.0814 
    100 H100      -73.9789   23.1091  -76.8756 H         1 UNK         0.0814 
    101 H101      -75.7792   24.8714  -77.3888 H         1 UNK         0.3105 
    102 H102      -77.5619   26.6543  -79.9418 H         1 UNK         0.0547 
    103 H103      -79.1508   24.8150  -79.4349 H         1 UNK         0.0837 
    104 H104      -77.8193   24.2315  -80.4197 H         1 UNK         0.0837 
    105 H105      -77.8621   23.8652  -78.7027 H         1 UNK         0.0837 
    106 H106      -78.0685   25.8432  -77.1921 H         1 UNK         0.3020 
    107 H107      -76.9893   28.8202  -75.7232 H         1 UNK         0.1245 
    108 H108      -79.5151   28.6741  -74.8658 H         1 UNK         0.0781 
    109 H109      -79.8899   28.3318  -76.5182 H         1 UNK         0.0781 
    110 H110      -78.0804   32.3620  -74.9394 H         1 UNK         0.0836 
    111 H111      -76.9187   31.2421  -75.5903 H         1 UNK         0.0836 
    112 H112      -78.5161   26.5149  -74.8455 H         1 UNK         0.3022 
    113 H113      -75.5458   24.6714  -74.0240 H         1 UNK         0.0747 
    114 H114      -75.6503   26.0767  -72.0510 H         1 UNK         0.0793 
    115 H115      -77.4033   26.1747  -72.1160 H         1 UNK         0.0793 
    116 H116      -76.6137   24.6463  -71.7410 H         1 UNK         0.0793 
    117 H117      -78.2786   24.1068  -73.4792 H         1 UNK         0.3047 
    118 H118      -78.6604   22.0812  -76.4584 H         1 UNK         0.0822 
    119 H119      -77.4683   20.9007  -74.6183 H         1 UNK         0.0807 
    120 H120      -79.1870   20.5413  -74.5981 H         1 UNK         0.0807 
    121 H121      -78.5086   21.6649  -73.4237 H         1 UNK         0.0807 
    122 H122      -80.2524   23.2791  -74.2329 H         1 UNK         0.2946 
    123 H123      -82.4299   24.8879  -76.4278 H         1 UNK         0.1144 
    124 H124      -84.3102   23.5181  -75.5540 H         1 UNK         0.0793 
    125 H125      -83.1891   22.2508  -75.0522 H         1 UNK         0.0793 
    126 H126      -83.4143   22.6094  -76.7585 H         1 UNK         0.0793 
    127 H127      -82.7818   24.2925  -73.6740 H         1 UNK         0.2896 
@<TRIPOS>BOND
     1    1    2 1    
     2    1   67 1    
     3    1   68 1    
     4    1   69 1    
     5    2    3 2    
     6    2    4 am   BACKBONE|DICT|INTERRES
     7    4    5 1    
     8    4   70 1    
     9    5    6 1    
    10    5   65 1    
    11    5   71 1    
    12    6    7 1    
    13    6   72 1    
    14    6   73 1    
    15    7    8 1    
    16    8    9 1    
    17    8   74 1    
    18    8   75 1    
    19    9   10 ar   
    20    9   14 ar   
    21   10   11 ar   
    22   10   76 1    
    23   11   12 ar   
    24   11   48 1    
    25   12   13 ar   
    26   12   77 1    
    27   13   14 ar   
    28   13   15 1    
    29   14   78 1    
    30   15   16 1    
    31   15   79 1    
    32   15   80 1    
    33   16   17 1    
    34   17   18 1    
    35   17   81 1    
    36   17   82 1    
    37   18   19 1    
    38   18   22 1    
    39   18   83 1    
    40   19   20 am   BACKBONE|DICT|INTERRES
    41   19   21 2    
    42   20   84 1    
    43   20   85 1    
    44   22   23 am   BACKBONE|DICT|INTERRES
    45   22   86 1    
    46   23   24 2    
    47   23   25 1    
    48   25   26 1    
    49   25   27 1    
    50   25   87 1    
    51   26   88 1    
    52   26   89 1    
    53   26   90 1    
    54   27   28 am   BACKBONE|DICT|INTERRES
    55   27   91 1    
    56   28   29 2    
    57   28   30 1    
    58   30   31 1    
    59   30   32 1    
    60   30   92 1    
    61   31   93 1    
    62   31   94 1    
    63   31   95 1    
    64   32   33 am   BACKBONE|DICT|INTERRES
    65   32   96 1    
    66   33   34 2    
    67   33   35 1    
    68   35   36 1    
    69   35   37 1    
    70   35   97 1    
    71   36   98 1    
    72   36   99 1    
    73   36  100 1    
    74   37   38 am   BACKBONE|DICT|INTERRES
    75   37  101 1    
    76   38   39 2    
    77   38   40 1    
    78   40   41 1    
    79   40   42 1    
    80   40  102 1    
    81   41  103 1    
    82   41  104 1    
    83   41  105 1    
    84   42   43 am   BACKBONE|DICT|INTERRES
    85   42  106 1    
    86   43   44 2    
    87   43   45 1    
    88   45   46 1    
    89   45   49 1    
    90   45  107 1    
    91   46   47 1    
    92   46  108 1    
    93   46  109 1    
    94   47   48 1    
    95   48  110 1    
    96   48  111 1    
    97   49   50 am   BACKBONE|DICT|INTERRES
    98   49  112 1    
    99   50   51 2    
   100   50   52 1    
   101   52   53 1    
   102   52   54 1    
   103   52  113 1    
   104   53  114 1    
   105   53  115 1    
   106   53  116 1    
   107   54   55 am   BACKBONE|DICT|INTERRES
   108   54  117 1    
   109   55   56 2    
   110   55   57 1    
   111   57   58 1    
   112   57   59 1    
   113   57  118 1    
   114   58  119 1    
   115   58  120 1    
   116   58  121 1    
   117   59   60 am   BACKBONE|DICT|INTERRES
   118   59  122 1    
   119   60   61 2    
   120   60   62 1    
   121   62   63 1    
   122   62   64 1    
   123   62  123 1    
   124   63  124 1    
   125   63  125 1    
   126   63  126 1    
   127   64   65 am   BACKBONE|DICT|INTERRES
   128   64  127 1    
   129   65   66 2    
@<TRIPOS>SUBSTRUCTURE
     1 UNK         1 GROUP             0       ****    0 ROOT    
