@<TRIPOS>MOLECULE
3R135
127   129    1
SMALL
USER_CHARGES


@<TRIPOS>ATOM
      1 CA        -85.6978   26.3942  -73.2617 C.3       0 UNK        -0.1998 
      2 C         -84.8126   26.3936  -72.0176 C.2       0 UNK         0.4909 
      3 O         -85.2362   25.8864  -70.9809 O.2       0 UNK        -0.5240 
      4 N         -83.5916   26.9496  -72.0510 N.am      1 UNK        -0.4739 
      5 CA        -82.9053   27.5391  -73.2101 C.3       1 UNK         0.0864 
      6 C6        -81.6353   28.3050  -72.7660 C.3       11 UNK        -0.0881 
      7 S7        -81.1670   29.6467  -73.9091 S.3       11 UNK        -0.2682 
      8 C8        -80.1066   30.6674  -72.8338 C.3       11 UNK         0.0289 
      9 C9        -78.7426   30.0279  -72.6126 C.ar      11 UNK        -0.0687 
     10 C10       -78.5749   29.0387  -71.6395 C.ar      11 UNK        -0.0823 
     11 C11       -77.3341   28.4249  -71.4490 C.ar      11 UNK        -0.0830 
     12 C12       -76.2399   28.8458  -72.2127 C.ar      11 UNK        -0.1021 
     13 C13       -76.3877   29.8516  -73.1729 C.ar      11 UNK        -0.0753 
     14 C14       -77.6436   30.4307  -73.3758 C.ar      11 UNK        -0.0933 
     15 C15       -75.2009   30.3081  -74.0065 C.3       11 UNK         0.0166 
     16 S16       -74.3136   31.6835  -73.2105 S.3       11 UNK        -0.2615 
     17 C17       -73.0916   30.7938  -72.1847 C.3       11 UNK        -0.0865 
     18 CA        -71.6782   30.8080  -72.8212 C.3       10 UNK         0.0862 
     19 C         -70.6422   30.1364  -71.8831 C.2       10 UNK         0.5551 
     20 N         -69.8398   30.9208  -71.1771 N.am      10 UNK        -0.7319 
     21 O         -70.5957   28.9147  -71.7567 O.2       10 UNK        -0.5018 
     22 N         -71.6851   30.1783  -74.1467 N.am      10 UNK        -0.4509 
     23 C         -70.7658   30.3709  -75.0979 C.2       10 UNK         0.4899 
     24 O         -69.8057   31.1349  -74.9836 O.2       10 UNK        -0.4839 
     25 CA        -70.9840   29.5797  -76.4021 C.3       9 UNK         0.0222 
     26 CB        -69.7879   29.6638  -77.3747 C.3       9 UNK        -0.1966 
     27 N         -71.3718   28.1850  -76.1560 N.am      9 UNK        -0.4218 
     28 C         -70.6464   27.2387  -75.5333 C.2       9 UNK         0.5020 
     29 O         -69.5112   27.4218  -75.0918 O.2       9 UNK        -0.5274 
     30 CA        -71.2826   25.8444  -75.3651 C.3       8 UNK         0.0270 
     31 CB        -71.6417   25.5911  -73.8912 C.3       8 UNK        -0.1976 
     32 N         -72.4688   25.6442  -76.2038 N.am      8 UNK        -0.4313 
     33 C         -72.4225   25.4547  -77.5318 C.2       8 UNK         0.5041 
     34 O         -71.3688   25.3435  -78.1603 O.2       8 UNK        -0.5577 
     35 CA        -73.7512   25.3965  -78.3101 C.3       7 UNK         0.0284 
     36 CB        -74.0506   23.9506  -78.7394 C.3       7 UNK        -0.1958 
     37 N         -74.9146   25.9360  -77.5997 N.am      7 UNK        -0.4454 
     38 C         -75.0657   27.1982  -77.1737 C.2       7 UNK         0.5089 
     39 O         -74.2193   28.0807  -77.3253 O.2       7 UNK        -0.5125 
     40 CA        -76.3435   27.4970  -76.3663 C.3       6 UNK         0.0408 
     41 CB        -77.5395   27.7482  -77.2955 C.3       6 UNK        -0.1791 
     42 N         -76.6702   26.4408  -75.4005 N.am      6 UNK        -0.4762 
     43 C         -75.8521   26.0419  -74.4126 C.2       6 UNK         0.5007 
     44 O         -74.7426   26.5349  -74.2108 O.2       6 UNK        -0.5032 
     45 CA        -76.3133   24.8492  -73.5567 C.3       5 UNK         0.0783 
     46 C46       -77.2449   25.2741  -72.3932 C.3       11 UNK        -0.0857 
     47 S47       -76.2710   25.8602  -70.9626 S.3       11 UNK        -0.2512 
     48 C48       -77.1954   27.3281  -70.3973 C.3       11 UNK         0.0225 
     49 N         -76.9054   23.8138  -74.4067 N.am      5 UNK        -0.4615 
     50 C         -76.1799   22.9287  -75.1075 C.2       4 UNK         0.5053 
     51 O         -74.9535   22.8468  -75.0407 O.2       4 UNK        -0.5105 
     52 CA        -76.9355   21.9808  -76.0565 C.3       4 UNK         0.0263 
     53 CB        -77.3030   20.6766  -75.3310 C.3       4 UNK        -0.1981 
     54 N         -78.1446   22.5713  -76.6328 N.am      4 UNK        -0.4224 
     55 C         -78.1631   23.6349  -77.4487 C.2       3 UNK         0.4895 
     56 O         -77.1526   24.2079  -77.8502 O.2       3 UNK        -0.5091 
     57 CA        -79.5428   24.1874  -77.8421 C.3       3 UNK         0.0250 
     58 CB        -80.0195   23.5523  -79.1576 C.3       3 UNK        -0.1996 
     59 N         -80.5697   24.0101  -76.8100 N.am      3 UNK        -0.4254 
     60 C         -80.5051   24.5023  -75.5648 C.2       2 UNK         0.5004 
     61 O         -79.5380   25.1255  -75.1150 O.2       2 UNK        -0.5226 
     62 CA        -81.6959   24.1759  -74.6497 C.3       2 UNK         0.0269 
     63 CB        -81.3530   22.9830  -73.7423 C.3       2 UNK        -0.1926 
     64 N         -82.0822   25.3136  -73.8159 N.am      2 UNK        -0.4687 
     65 C         -82.5654   26.4770  -74.2761 C.2       1 UNK         0.5165 
     66 O         -82.7954   26.7048  -75.4644 O.2       1 UNK        -0.5079 
     67 H67       -85.3752   25.6258  -73.9634 H         1 UNK         0.0900 
     68 H68       -85.6900   27.3593  -73.7661 H         1 UNK         0.0900 
     69 H69       -86.7313   26.1805  -72.9895 H         1 UNK         0.0900 
     70 H70       -83.0530   26.9379  -71.1967 H         1 UNK         0.2959 
     71 H71       -83.5902   28.2583  -73.6634 H         1 UNK         0.1079 
     72 H72       -81.8085   28.7628  -71.7906 H         1 UNK         0.0837 
     73 H73       -80.7883   27.6283  -72.6357 H         1 UNK         0.0837 
     74 H74       -79.9877   31.6490  -73.2953 H         1 UNK         0.0685 
     75 H75       -80.6017   30.8435  -71.8777 H         1 UNK         0.0685 
     76 H76       -79.4181   28.7383  -71.0339 H         1 UNK         0.1434 
     77 H77       -75.2759   28.3790  -72.0674 H         1 UNK         0.1329 
     78 H78       -77.7638   31.2007  -74.1256 H         1 UNK         0.1335 
     79 H79       -74.5251   29.4729  -74.1959 H         1 UNK         0.0680 
     80 H80       -75.5454   30.6431  -74.9860 H         1 UNK         0.0680 
     81 H81       -73.4234   29.7713  -72.0008 H         1 UNK         0.1032 
     82 H82       -73.0686   31.2795  -71.2073 H         1 UNK         0.1032 
     83 H83       -71.3899   31.8531  -72.9550 H         1 UNK         0.0461 
     84 H84       -69.1720   30.5011  -70.5493 H         1 UNK         0.3453 
     85 H85       -69.8778   31.9241  -71.2699 H         1 UNK         0.3453 
     86 H86       -72.4128   29.5010  -74.3124 H         1 UNK         0.2984 
     87 H87       -71.8383   30.0439  -76.8972 H         1 UNK         0.0554 
     88 H88       -69.9818   29.1061  -78.2909 H         1 UNK         0.0847 
     89 H89       -68.8729   29.2713  -76.9301 H         1 UNK         0.0847 
     90 H90       -69.5904   30.6975  -77.6608 H         1 UNK         0.0847 
     91 H91       -72.2985   27.9334  -76.4861 H         1 UNK         0.3141 
     92 H92       -70.5333   25.1058  -75.6581 H         1 UNK         0.0743 
     93 H93       -72.2774   26.3793  -73.4871 H         1 UNK         0.0784 
     94 H94       -72.1563   24.6389  -73.7595 H         1 UNK         0.0784 
     95 H95       -70.7421   25.5632  -73.2749 H         1 UNK         0.0784 
     96 H96       -73.3692   25.7439  -75.7488 H         1 UNK         0.3213 
     97 H97       -73.6155   25.9986  -79.2108 H         1 UNK         0.0855 
     98 H98       -74.2527   23.3108  -77.8794 H         1 UNK         0.0814 
     99 H99       -73.2079   23.5167  -79.2796 H         1 UNK         0.0814 
    100 H100      -74.9144   23.9042  -79.4026 H         1 UNK         0.0814 
    101 H101      -75.6962   25.2948  -77.4740 H         1 UNK         0.3105 
    102 H102      -76.1701   28.4094  -75.7969 H         1 UNK         0.0547 
    103 H103      -77.3519   28.6056  -77.9429 H         1 UNK         0.0837 
    104 H104      -77.7362   26.8936  -77.9418 H         1 UNK         0.0837 
    105 H105      -78.4468   27.9612  -76.7295 H         1 UNK         0.0837 
    106 H106      -77.5749   25.9918  -75.4910 H         1 UNK         0.3020 
    107 H107      -75.4104   24.4201  -73.1139 H         1 UNK         0.1245 
    108 H108      -77.8293   24.4198  -72.0481 H         1 UNK         0.0781 
    109 H109      -77.9729   26.0230  -72.7119 H         1 UNK         0.0781 
    110 H110      -76.6876   27.7454  -69.5269 H         1 UNK         0.0836 
    111 H111      -78.1763   26.9987  -70.0508 H         1 UNK         0.0836 
    112 H112      -77.9043   23.8757  -74.5615 H         1 UNK         0.3022 
    113 H113      -76.2610   21.7370  -76.8803 H         1 UNK         0.0747 
    114 H114      -77.7608   19.9585  -76.0117 H         1 UNK         0.0793 
    115 H115      -76.4154   20.2009  -74.9111 H         1 UNK         0.0793 
    116 H116      -77.9980   20.8525  -74.5089 H         1 UNK         0.0793 
    117 H117      -79.0267   22.1630  -76.3615 H         1 UNK         0.3047 
    118 H118      -79.4309   25.2607  -78.0040 H         1 UNK         0.0822 
    119 H119      -80.9488   24.0052  -79.5041 H         1 UNK         0.0807 
    120 H120      -80.1858   22.4794  -79.0533 H         1 UNK         0.0807 
    121 H121      -79.2803   23.6920  -79.9480 H         1 UNK         0.0807 
    122 H122      -81.3949   23.4973  -77.0870 H         1 UNK         0.2946 
    123 H123      -82.5570   23.9111  -75.2677 H         1 UNK         0.1144 
    124 H124      -80.5058   23.2019  -73.0905 H         1 UNK         0.0793 
    125 H125      -81.0917   22.1029  -74.3316 H         1 UNK         0.0793 
    126 H126      -82.1987   22.7074  -73.1119 H         1 UNK         0.0793 
    127 H127      -81.9338   25.2172  -72.8222 H         1 UNK         0.2896 
@<TRIPOS>BOND
     1    1    2 1    
     2    1   67 1    
     3    1   68 1    
     4    1   69 1    
     5    2    3 2    
     6    2    4 am   BACKBONE|DICT|INTERRES
     7    4    5 1    
     8    4   70 1    
     9    5    6 1    
    10    5   65 1    
    11    5   71 1    
    12    6    7 1    
    13    6   72 1    
    14    6   73 1    
    15    7    8 1    
    16    8    9 1    
    17    8   74 1    
    18    8   75 1    
    19    9   10 ar   
    20    9   14 ar   
    21   10   11 ar   
    22   10   76 1    
    23   11   12 ar   
    24   11   48 1    
    25   12   13 ar   
    26   12   77 1    
    27   13   14 ar   
    28   13   15 1    
    29   14   78 1    
    30   15   16 1    
    31   15   79 1    
    32   15   80 1    
    33   16   17 1    
    34   17   18 1    
    35   17   81 1    
    36   17   82 1    
    37   18   19 1    
    38   18   22 1    
    39   18   83 1    
    40   19   20 am   BACKBONE|DICT|INTERRES
    41   19   21 2    
    42   20   84 1    
    43   20   85 1    
    44   22   23 am   BACKBONE|DICT|INTERRES
    45   22   86 1    
    46   23   24 2    
    47   23   25 1    
    48   25   26 1    
    49   25   27 1    
    50   25   87 1    
    51   26   88 1    
    52   26   89 1    
    53   26   90 1    
    54   27   28 am   BACKBONE|DICT|INTERRES
    55   27   91 1    
    56   28   29 2    
    57   28   30 1    
    58   30   31 1    
    59   30   32 1    
    60   30   92 1    
    61   31   93 1    
    62   31   94 1    
    63   31   95 1    
    64   32   33 am   BACKBONE|DICT|INTERRES
    65   32   96 1    
    66   33   34 2    
    67   33   35 1    
    68   35   36 1    
    69   35   37 1    
    70   35   97 1    
    71   36   98 1    
    72   36   99 1    
    73   36  100 1    
    74   37   38 am   BACKBONE|DICT|INTERRES
    75   37  101 1    
    76   38   39 2    
    77   38   40 1    
    78   40   41 1    
    79   40   42 1    
    80   40  102 1    
    81   41  103 1    
    82   41  104 1    
    83   41  105 1    
    84   42   43 am   BACKBONE|DICT|INTERRES
    85   42  106 1    
    86   43   44 2    
    87   43   45 1    
    88   45   46 1    
    89   45   49 1    
    90   45  107 1    
    91   46   47 1    
    92   46  108 1    
    93   46  109 1    
    94   47   48 1    
    95   48  110 1    
    96   48  111 1    
    97   49   50 am   BACKBONE|DICT|INTERRES
    98   49  112 1    
    99   50   51 2    
   100   50   52 1    
   101   52   53 1    
   102   52   54 1    
   103   52  113 1    
   104   53  114 1    
   105   53  115 1    
   106   53  116 1    
   107   54   55 am   BACKBONE|DICT|INTERRES
   108   54  117 1    
   109   55   56 2    
   110   55   57 1    
   111   57   58 1    
   112   57   59 1    
   113   57  118 1    
   114   58  119 1    
   115   58  120 1    
   116   58  121 1    
   117   59   60 am   BACKBONE|DICT|INTERRES
   118   59  122 1    
   119   60   61 2    
   120   60   62 1    
   121   62   63 1    
   122   62   64 1    
   123   62  123 1    
   124   63  124 1    
   125   63  125 1    
   126   63  126 1    
   127   64   65 am   BACKBONE|DICT|INTERRES
   128   64  127 1    
   129   65   66 2    
@<TRIPOS>SUBSTRUCTURE
     1 UNK         1 GROUP             0       ****    0 ROOT    
