@<TRIPOS>MOLECULE
3R135
127   129    1
SMALL
USER_CHARGES


@<TRIPOS>ATOM
      1 CA        -84.3122   25.7089  -71.5889 C.3       0 UNK        -0.1998 
      2 C         -83.7870   26.5721  -72.7265 C.2       0 UNK         0.4909 
      3 O         -84.0782   26.2949  -73.8909 O.2       0 UNK        -0.5240 
      4 N         -83.0223   27.6209  -72.3988 N.am      1 UNK        -0.4739 
      5 CA        -82.3538   28.5029  -73.3607 C.3       1 UNK         0.0864 
      6 C6        -81.9586   29.8610  -72.7167 C.3       11 UNK        -0.0881 
      7 S7        -80.8970   29.7223  -71.2336 S.3       11 UNK        -0.2682 
      8 C8        -79.2459   30.0268  -71.9495 C.3       11 UNK         0.0289 
      9 C9        -78.1540   29.2073  -71.2732 C.ar      11 UNK        -0.0687 
     10 C10       -78.3029   27.8272  -71.1102 C.ar      11 UNK        -0.0823 
     11 C11       -77.2800   27.0586  -70.5507 C.ar      11 UNK        -0.0830 
     12 C12       -76.0904   27.6789  -70.1580 C.ar      11 UNK        -0.1021 
     13 C13       -75.9164   29.0541  -70.3394 C.ar      11 UNK        -0.0753 
     14 C14       -76.9614   29.8163  -70.8738 C.ar      11 UNK        -0.0933 
     15 C15       -74.5863   29.7053  -69.9882 C.3       11 UNK         0.0166 
     16 S16       -73.3903   29.5803  -71.3623 S.3       11 UNK        -0.2615 
     17 C17       -74.1185   30.7195  -72.5900 C.3       11 UNK        -0.0865 
     18 CA        -74.7116   29.9659  -73.8218 C.3       10 UNK         0.0862 
     19 C         -75.8337   30.7713  -74.5514 C.2       10 UNK         0.5551 
     20 N         -75.9769   30.6615  -75.8669 N.am      10 UNK        -0.7319 
     21 O         -76.6104   31.4814  -73.9177 O.2       10 UNK        -0.5018 
     22 N         -73.6733   29.4200  -74.7202 N.am      10 UNK        -0.4509 
     23 C         -72.7790   30.1376  -75.4200 C.2       10 UNK         0.4899 
     24 O         -72.6820   31.3640  -75.3479 O.2       10 UNK        -0.4839 
     25 CA        -71.8724   29.3750  -76.4081 C.3       9 UNK         0.0222 
     26 CB        -70.5456   30.1096  -76.7014 C.3       9 UNK        -0.1966 
     27 N         -71.6373   27.9753  -76.0423 N.am      9 UNK        -0.4218 
     28 C         -70.9675   27.4998  -74.9794 C.2       9 UNK         0.5020 
     29 O         -70.3936   28.2128  -74.1550 O.2       9 UNK        -0.5274 
     30 CA        -70.9340   25.9691  -74.7891 C.3       8 UNK         0.0270 
     31 CB        -71.5044   25.5757  -73.4131 C.3       8 UNK        -0.1976 
     32 N         -71.6826   25.2605  -75.8313 N.am      8 UNK        -0.4313 
     33 C         -71.1732   24.8144  -76.9882 C.2       8 UNK         0.5041 
     34 O         -69.9769   24.8692  -77.2753 O.2       8 UNK        -0.5577 
     35 CA        -72.1677   24.2323  -78.0121 C.3       7 UNK         0.0284 
     36 CB        -72.1842   22.6976  -77.9322 C.3       7 UNK        -0.1958 
     37 N         -73.5335   24.7442  -77.8478 N.am      7 UNK        -0.4454 
     38 C         -73.9086   26.0050  -78.1206 C.2       7 UNK         0.5089 
     39 O         -73.1490   26.8544  -78.5842 O.2       7 UNK        -0.5125 
     40 CA        -75.3436   26.4145  -77.7335 C.3       6 UNK         0.0408 
     41 CB        -76.3031   26.1787  -78.9085 C.3       6 UNK        -0.1791 
     42 N         -75.8276   25.7158  -76.5365 N.am      6 UNK        -0.4762 
     43 C         -75.2422   25.8222  -75.3311 C.2       6 UNK         0.5007 
     44 O         -74.3362   26.6255  -75.1055 O.2       6 UNK        -0.5032 
     45 CA        -75.6549   24.8539  -74.2020 C.3       5 UNK         0.0783 
     46 C46       -76.2857   25.6250  -73.0241 C.3       11 UNK        -0.0857 
     47 S47       -76.2950   24.6247  -71.4980 S.3       11 UNK        -0.2512 
     48 C48       -77.4484   25.5499  -70.4291 C.3       11 UNK         0.0225 
     49 N         -76.5084   23.7484  -74.6430 N.am      5 UNK        -0.4615 
     50 C         -76.1522   22.7657  -75.4808 C.2       4 UNK         0.5053 
     51 O         -75.0263   22.6578  -75.9671 O.2       4 UNK        -0.5105 
     52 CA        -77.2675   21.7875  -75.8988 C.3       4 UNK         0.0263 
     53 CB        -77.2881   20.5665  -74.9660 C.3       4 UNK        -0.1981 
     54 N         -78.6009   22.4089  -75.9254 N.am      4 UNK        -0.4224 
     55 C         -78.9347   23.4546  -76.6982 C.2       3 UNK         0.4895 
     56 O         -78.1605   23.9513  -77.5167 O.2       3 UNK        -0.5091 
     57 CA        -80.3204   24.0953  -76.4909 C.3       3 UNK         0.0250 
     58 CB        -81.2368   23.3250  -75.5177 C.3       3 UNK        -0.1996 
     59 N         -80.1408   25.4574  -75.9881 N.am      3 UNK        -0.4254 
     60 C         -79.9164   26.5473  -76.7324 C.2       2 UNK         0.5004 
     61 O         -79.9912   26.5697  -77.9622 O.2       2 UNK        -0.5226 
     62 CA        -79.5747   27.8334  -75.9541 C.3       2 UNK         0.0269 
     63 CB        -79.0621   28.9634  -76.8663 C.3       2 UNK        -0.1926 
     64 N         -80.7210   28.3266  -75.1855 N.am      2 UNK        -0.4687 
     65 C         -81.1516   27.8001  -74.0314 C.2       1 UNK         0.5165 
     66 O         -80.6154   26.8239  -73.4965 O.2       1 UNK        -0.5079 
     67 H67       -83.9734   26.0660  -70.6162 H         1 UNK         0.0900 
     68 H68       -83.9703   24.6812  -71.7104 H         1 UNK         0.0900 
     69 H69       -85.4018   25.7091  -71.5895 H         1 UNK         0.0900 
     70 H70       -82.7841   27.7864  -71.4310 H         1 UNK         0.2959 
     71 H71       -83.0724   28.7171  -74.1556 H         1 UNK         0.1079 
     72 H72       -82.8671   30.3837  -72.4127 H         1 UNK         0.0837 
     73 H73       -81.4876   30.5200  -73.4488 H         1 UNK         0.0837 
     74 H74       -79.2374   29.7777  -73.0108 H         1 UNK         0.0685 
     75 H75       -79.0304   31.0945  -71.8852 H         1 UNK         0.0685 
     76 H76       -79.2150   27.3476  -71.4360 H         1 UNK         0.1434 
     77 H77       -75.2841   27.0828  -69.7525 H         1 UNK         0.1329 
     78 H78       -76.8348   30.8805  -71.0149 H         1 UNK         0.1335 
     79 H79       -74.1616   29.2191  -69.1086 H         1 UNK         0.0680 
     80 H80       -74.7291   30.7523  -69.7160 H         1 UNK         0.0680 
     81 H81       -73.3537   31.4339  -72.8937 H         1 UNK         0.1032 
     82 H82       -74.8713   31.3270  -72.0890 H         1 UNK         0.1032 
     83 H83       -75.2404   29.0910  -73.4407 H         1 UNK         0.0461 
     84 H84       -75.3513   30.0816  -76.4005 H         1 UNK         0.3453 
     85 H85       -76.7013   31.1878  -76.3281 H         1 UNK         0.3453 
     86 H86       -73.7126   28.4135  -74.8602 H         1 UNK         0.2984 
     87 H87       -72.4309   29.3380  -77.3446 H         1 UNK         0.0554 
     88 H88       -69.9298   29.5518  -77.4071 H         1 UNK         0.0847 
     89 H89       -69.9600   30.2679  -75.7952 H         1 UNK         0.0847 
     90 H90       -70.7299   31.0904  -77.1413 H         1 UNK         0.0847 
     91 H91       -72.0694   27.3015  -76.6618 H         1 UNK         0.3141 
     92 H92       -69.8866   25.6613  -74.8214 H         1 UNK         0.0743 
     93 H93       -72.5280   25.9278  -73.2793 H         1 UNK         0.0784 
     94 H94       -71.4979   24.4945  -73.2729 H         1 UNK         0.0784 
     95 H95       -70.9092   26.0079  -72.6073 H         1 UNK         0.0784 
     96 H96       -72.6837   25.2120  -75.6980 H         1 UNK         0.3213 
     97 H97       -71.8177   24.5179  -79.0067 H         1 UNK         0.0855 
     98 H98       -72.5073   22.3469  -76.9512 H         1 UNK         0.0814 
     99 H99       -71.1892   22.2877  -78.1117 H         1 UNK         0.0814 
    100 H100      -72.8510   22.2667  -78.6793 H         1 UNK         0.0814 
    101 H101      -74.2097   24.1099  -77.4368 H         1 UNK         0.3105 
    102 H102      -75.3362   27.4841  -77.5124 H         1 UNK         0.0547 
    103 H103      -76.3497   25.1252  -79.1876 H         1 UNK         0.0837 
    104 H104      -77.3147   26.5052  -78.6687 H         1 UNK         0.0837 
    105 H105      -75.9844   26.7357  -79.7906 H         1 UNK         0.0837 
    106 H106      -76.5678   25.0355  -76.6781 H         1 UNK         0.3020 
    107 H107      -74.7190   24.4121  -73.8509 H         1 UNK         0.1245 
    108 H108      -75.7196   26.5339  -72.8074 H         1 UNK         0.0781 
    109 H109      -77.3018   25.9432  -73.2663 H         1 UNK         0.0781 
    110 H110      -78.4679   25.2544  -70.6824 H         1 UNK         0.0836 
    111 H111      -77.2925   25.2500  -69.3919 H         1 UNK         0.0836 
    112 H112      -77.4505   23.7466  -74.2824 H         1 UNK         0.3022 
    113 H113      -77.0394   21.4451  -76.9104 H         1 UNK         0.0747 
    114 H114      -78.0171   19.8261  -75.2961 H         1 UNK         0.0793 
    115 H115      -76.3146   20.0738  -74.9482 H         1 UNK         0.0793 
    116 H116      -77.5311   20.8445  -73.9396 H         1 UNK         0.0793 
    117 H117      -79.2876   22.0453  -75.2801 H         1 UNK         0.3047 
    118 H118      -80.8107   24.1281  -77.4664 H         1 UNK         0.0822 
    119 H119      -82.2141   23.8041  -75.4477 H         1 UNK         0.0807 
    120 H120      -80.8266   23.2808  -74.5076 H         1 UNK         0.0807 
    121 H121      -81.4105   22.3036  -75.8592 H         1 UNK         0.0807 
    122 H122      -80.1388   25.5794  -74.9801 H         1 UNK         0.2946 
    123 H123      -78.7665   27.5859  -75.2605 H         1 UNK         0.1144 
    124 H124      -78.7794   29.8414  -76.2855 H         1 UNK         0.0793 
    125 H125      -79.8138   29.2707  -77.5948 H         1 UNK         0.0793 
    126 H126      -78.1779   28.6454  -77.4210 H         1 UNK         0.0793 
    127 H127      -81.2219   29.1076  -75.5856 H         1 UNK         0.2896 
@<TRIPOS>BOND
     1    1    2 1    
     2    1   67 1    
     3    1   68 1    
     4    1   69 1    
     5    2    3 2    
     6    2    4 am   BACKBONE|DICT|INTERRES
     7    4    5 1    
     8    4   70 1    
     9    5    6 1    
    10    5   65 1    
    11    5   71 1    
    12    6    7 1    
    13    6   72 1    
    14    6   73 1    
    15    7    8 1    
    16    8    9 1    
    17    8   74 1    
    18    8   75 1    
    19    9   10 ar   
    20    9   14 ar   
    21   10   11 ar   
    22   10   76 1    
    23   11   12 ar   
    24   11   48 1    
    25   12   13 ar   
    26   12   77 1    
    27   13   14 ar   
    28   13   15 1    
    29   14   78 1    
    30   15   16 1    
    31   15   79 1    
    32   15   80 1    
    33   16   17 1    
    34   17   18 1    
    35   17   81 1    
    36   17   82 1    
    37   18   19 1    
    38   18   22 1    
    39   18   83 1    
    40   19   20 am   BACKBONE|DICT|INTERRES
    41   19   21 2    
    42   20   84 1    
    43   20   85 1    
    44   22   23 am   BACKBONE|DICT|INTERRES
    45   22   86 1    
    46   23   24 2    
    47   23   25 1    
    48   25   26 1    
    49   25   27 1    
    50   25   87 1    
    51   26   88 1    
    52   26   89 1    
    53   26   90 1    
    54   27   28 am   BACKBONE|DICT|INTERRES
    55   27   91 1    
    56   28   29 2    
    57   28   30 1    
    58   30   31 1    
    59   30   32 1    
    60   30   92 1    
    61   31   93 1    
    62   31   94 1    
    63   31   95 1    
    64   32   33 am   BACKBONE|DICT|INTERRES
    65   32   96 1    
    66   33   34 2    
    67   33   35 1    
    68   35   36 1    
    69   35   37 1    
    70   35   97 1    
    71   36   98 1    
    72   36   99 1    
    73   36  100 1    
    74   37   38 am   BACKBONE|DICT|INTERRES
    75   37  101 1    
    76   38   39 2    
    77   38   40 1    
    78   40   41 1    
    79   40   42 1    
    80   40  102 1    
    81   41  103 1    
    82   41  104 1    
    83   41  105 1    
    84   42   43 am   BACKBONE|DICT|INTERRES
    85   42  106 1    
    86   43   44 2    
    87   43   45 1    
    88   45   46 1    
    89   45   49 1    
    90   45  107 1    
    91   46   47 1    
    92   46  108 1    
    93   46  109 1    
    94   47   48 1    
    95   48  110 1    
    96   48  111 1    
    97   49   50 am   BACKBONE|DICT|INTERRES
    98   49  112 1    
    99   50   51 2    
   100   50   52 1    
   101   52   53 1    
   102   52   54 1    
   103   52  113 1    
   104   53  114 1    
   105   53  115 1    
   106   53  116 1    
   107   54   55 am   BACKBONE|DICT|INTERRES
   108   54  117 1    
   109   55   56 2    
   110   55   57 1    
   111   57   58 1    
   112   57   59 1    
   113   57  118 1    
   114   58  119 1    
   115   58  120 1    
   116   58  121 1    
   117   59   60 am   BACKBONE|DICT|INTERRES
   118   59  122 1    
   119   60   61 2    
   120   60   62 1    
   121   62   63 1    
   122   62   64 1    
   123   62  123 1    
   124   63  124 1    
   125   63  125 1    
   126   63  126 1    
   127   64   65 am   BACKBONE|DICT|INTERRES
   128   64  127 1    
   129   65   66 2    
@<TRIPOS>SUBSTRUCTURE
     1 UNK         1 GROUP             0       ****    0 ROOT    
