@<TRIPOS>MOLECULE
3R135
127   129    1
SMALL
USER_CHARGES


@<TRIPOS>ATOM
      1 CA        -84.2583   30.5474  -73.8131 C.3       0 UNK        -0.1998 
      2 C         -83.2501   29.4173  -73.9537 C.2       0 UNK         0.4909 
      3 O         -83.4448   28.3512  -73.3686 O.2       0 UNK        -0.5240 
      4 N         -82.1865   29.6384  -74.7398 N.am      1 UNK        -0.4739 
      5 CA        -81.0501   28.7401  -75.0183 C.3       1 UNK         0.0864 
      6 C6        -80.2521   28.3235  -73.7527 C.3       11 UNK        -0.0881 
      7 S7        -79.4754   29.7733  -72.9672 S.3       11 UNK        -0.2682 
      8 C8        -79.0519   29.1179  -71.3237 C.3       11 UNK         0.0289 
      9 C9        -77.8355   28.2004  -71.3505 C.ar      11 UNK        -0.0687 
     10 C10       -77.9415   26.8743  -70.9236 C.ar      11 UNK        -0.0823 
     11 C11       -76.8107   26.0545  -70.8711 C.ar      11 UNK        -0.0830 
     12 C12       -75.5720   26.5654  -71.2681 C.ar      11 UNK        -0.1021 
     13 C13       -75.4464   27.8840  -71.7164 C.ar      11 UNK        -0.0753 
     14 C14       -76.5896   28.6957  -71.7485 C.ar      11 UNK        -0.0933 
     15 C15       -74.0589   28.3713  -72.1471 C.3       11 UNK         0.0166 
     16 S16       -73.8573   30.1829  -72.2740 S.3       11 UNK        -0.2615 
     17 C17       -74.5348   30.5166  -73.9406 C.3       11 UNK        -0.0865 
     18 CA        -73.5602   31.2931  -74.8646 C.3       10 UNK         0.0862 
     19 C         -73.4365   32.7909  -74.4518 C.2       10 UNK         0.5551 
     20 N         -72.2686   33.2777  -74.0489 N.am      10 UNK        -0.7319 
     21 O         -74.4189   33.5263  -74.5128 O.2       10 UNK        -0.5018 
     22 N         -72.2840   30.5803  -75.0405 N.am      10 UNK        -0.4509 
     23 C         -71.4151   30.7922  -76.0353 C.2       10 UNK         0.4899 
     24 O         -71.6124   31.5867  -76.9551 O.2       10 UNK        -0.4839 
     25 CA        -70.0997   29.9926  -76.0185 C.3       9 UNK         0.0222 
     26 CB        -69.0592   30.6515  -75.0915 C.3       9 UNK        -0.1966 
     27 N         -70.2575   28.5601  -75.7335 N.am      9 UNK        -0.4218 
     28 C         -70.6260   27.9492  -74.6000 C.2       9 UNK         0.5020 
     29 O         -70.9040   28.5445  -73.5579 O.2       9 UNK        -0.5274 
     30 CA        -70.7320   26.4127  -74.6694 C.3       8 UNK         0.0270 
     31 CB        -70.9483   25.7739  -73.2846 C.3       8 UNK        -0.1976 
     32 N         -71.8090   25.9917  -75.5714 N.am      8 UNK        -0.4313 
     33 C         -71.7556   26.0428  -76.9125 C.2       8 UNK         0.5041 
     34 O         -70.7477   26.3945  -77.5295 O.2       8 UNK        -0.5577 
     35 CA        -73.0177   25.6671  -77.7145 C.3       7 UNK         0.0284 
     36 CB        -72.8724   24.2584  -78.3116 C.3       7 UNK        -0.1958 
     37 N         -74.2578   25.7290  -76.9405 N.am      7 UNK        -0.4454 
     38 C         -74.7863   26.8390  -76.4033 C.2       7 UNK         0.5089 
     39 O         -74.3420   27.9700  -76.5971 O.2       7 UNK        -0.5125 
     40 CA        -75.9994   26.6557  -75.4693 C.3       6 UNK         0.0408 
     41 CB        -77.2846   26.9988  -76.2346 C.3       6 UNK        -0.1791 
     42 N         -76.1254   25.3097  -74.8916 N.am      6 UNK        -0.4762 
     43 C         -75.1813   24.6748  -74.1739 C.2       6 UNK         0.5007 
     44 O         -74.1033   25.1897  -73.8773 O.2       6 UNK        -0.5032 
     45 CA        -75.4168   23.1964  -73.7943 C.3       5 UNK         0.0783 
     46 C46       -75.6159   23.0010  -72.2707 C.3       11 UNK        -0.0857 
     47 S47       -77.2847   23.4393  -71.6688 S.3       11 UNK        -0.2512 
     48 C48       -76.9261   24.6323  -70.3439 C.3       11 UNK         0.0225 
     49 N         -76.4685   22.5418  -74.5779 N.am      5 UNK        -0.4615 
     50 C         -76.4469   22.3417  -75.9018 C.2       4 UNK         0.5053 
     51 O         -75.4863   22.6296  -76.6167 O.2       4 UNK        -0.5105 
     52 CA        -77.7223   21.7632  -76.5436 C.3       4 UNK         0.0263 
     53 CB        -77.5480   20.2600  -76.8130 C.3       4 UNK        -0.1981 
     54 N         -78.9551   21.9756  -75.7698 N.am      4 UNK        -0.4224 
     55 C         -79.4720   23.1700  -75.4462 C.2       3 UNK         0.4895 
     56 O         -78.9204   24.2444  -75.6920 O.2       3 UNK        -0.5091 
     57 CA        -80.7994   23.1535  -74.6703 C.3       3 UNK         0.0250 
     58 CB        -80.5434   23.1742  -73.1559 C.3       3 UNK        -0.1996 
     59 N         -81.6369   24.3001  -75.0202 N.am      3 UNK        -0.4254 
     60 C         -82.3122   24.4299  -76.1695 C.2       2 UNK         0.5004 
     61 O         -82.3565   23.5592  -77.0401 O.2       2 UNK        -0.5226 
     62 CA        -83.0878   25.7422  -76.3801 C.3       2 UNK         0.0269 
     63 CB        -84.5710   25.5551  -76.0215 C.3       2 UNK        -0.1926 
     64 N         -82.5521   26.8716  -75.6136 N.am      2 UNK        -0.4687 
     65 C         -81.4200   27.5265  -75.8993 C.2       1 UNK         0.5165 
     66 O         -80.6947   27.2323  -76.8492 O.2       1 UNK        -0.5079 
     67 H67       -85.2369   30.2229  -74.1658 H         1 UNK         0.0900 
     68 H68       -83.9665   31.4289  -74.3836 H         1 UNK         0.0900 
     69 H69       -84.3516   30.8367  -72.7667 H         1 UNK         0.0900 
     70 H70       -82.1220   30.5338  -75.2043 H         1 UNK         0.2959 
     71 H71       -80.3725   29.3322  -75.6366 H         1 UNK         0.1079 
     72 H72       -80.8958   27.8176  -73.0320 H         1 UNK         0.0837 
     73 H73       -79.4603   27.6148  -73.9928 H         1 UNK         0.0837 
     74 H74       -79.9211   28.6121  -70.9005 H         1 UNK         0.0685 
     75 H75       -78.8374   29.9577  -70.6614 H         1 UNK         0.0685 
     76 H76       -78.8996   26.4853  -70.6068 H         1 UNK         0.1434 
     77 H77       -74.6962   25.9322  -71.2302 H         1 UNK         0.1329 
     78 H78       -76.5277   29.7232  -72.0734 H         1 UNK         0.1335 
     79 H79       -73.3241   28.0163  -71.4230 H         1 UNK         0.0680 
     80 H80       -73.7916   27.9060  -73.0971 H         1 UNK         0.0680 
     81 H81       -74.8013   29.5742  -74.4194 H         1 UNK         0.1032 
     82 H82       -75.4770   31.0576  -73.8345 H         1 UNK         0.1032 
     83 H83       -74.0317   31.3140  -75.8492 H         1 UNK         0.0461 
     84 H84       -71.4635   32.6761  -73.9888 H         1 UNK         0.3453 
     85 H85       -72.1984   34.2488  -73.7893 H         1 UNK         0.3453 
     86 H86       -72.0243   29.9229  -74.3098 H         1 UNK         0.2984 
     87 H87       -69.6992   30.0363  -77.0326 H         1 UNK         0.0554 
     88 H88       -68.1023   30.1316  -75.1373 H         1 UNK         0.0847 
     89 H89       -69.3840   30.6633  -74.0508 H         1 UNK         0.0847 
     90 H90       -68.8789   31.6866  -75.3847 H         1 UNK         0.0847 
     91 H91       -70.1569   27.9472  -76.5405 H         1 UNK         0.3141 
     92 H92       -69.7841   26.0362  -75.0598 H         1 UNK         0.0743 
     93 H93       -70.1238   26.0150  -72.6125 H         1 UNK         0.0784 
     94 H94       -71.8647   26.1292  -72.8122 H         1 UNK         0.0784 
     95 H95       -71.0064   24.6875  -73.3517 H         1 UNK         0.0784 
     96 H96       -72.6806   25.7206  -75.1234 H         1 UNK         0.3213 
     97 H97       -73.1032   26.3827  -78.5349 H         1 UNK         0.0855 
     98 H98       -71.9733   24.1838  -78.9251 H         1 UNK         0.0814 
     99 H99       -73.7204   24.0072  -78.9492 H         1 UNK         0.0814 
    100 H100      -72.8020   23.4965  -77.5340 H         1 UNK         0.0814 
    101 H101      -74.7067   24.8444  -76.7358 H         1 UNK         0.3105 
    102 H102      -75.8924   27.3551  -74.6387 H         1 UNK         0.0547 
    103 H103      -77.4144   26.3626  -77.1111 H         1 UNK         0.0837 
    104 H104      -78.1652   26.8712  -75.6106 H         1 UNK         0.0837 
    105 H105      -77.2747   28.0340  -76.5779 H         1 UNK         0.0837 
    106 H106      -76.9904   24.8177  -75.0938 H         1 UNK         0.3020 
    107 H107      -74.4841   22.6911  -74.0564 H         1 UNK         0.1245 
    108 H108      -74.8525   23.5422  -71.7092 H         1 UNK         0.0781 
    109 H109      -75.4562   21.9500  -72.0250 H         1 UNK         0.0781 
    110 H110      -76.0196   24.3440  -69.8096 H         1 UNK         0.0836 
    111 H111      -77.7303   24.5803  -69.6083 H         1 UNK         0.0836 
    112 H112      -77.3046   22.2986  -74.0671 H         1 UNK         0.3022 
    113 H113      -77.8509   22.2693  -77.5026 H         1 UNK         0.0747 
    114 H114      -78.3954   19.8536  -77.3655 H         1 UNK         0.0793 
    115 H115      -76.6550   20.0711  -77.4109 H         1 UNK         0.0793 
    116 H116      -77.4455   19.6930  -75.8868 H         1 UNK         0.0793 
    117 H117      -79.4642   21.1436  -75.5069 H         1 UNK         0.3047 
    118 H118      -81.3440   22.2402  -74.9200 H         1 UNK         0.0822 
    119 H119      -79.9416   22.3185  -72.8474 H         1 UNK         0.0807 
    120 H120      -81.4768   23.1293  -72.5944 H         1 UNK         0.0807 
    121 H121      -80.0122   24.0768  -72.8504 H         1 UNK         0.0807 
    122 H122      -81.6331   25.0814  -74.3822 H         1 UNK         0.2946 
    123 H123      -83.0200   25.9877  -77.4426 H         1 UNK         0.1144 
    124 H124      -85.0111   24.7356  -76.5916 H         1 UNK         0.0793 
    125 H125      -85.1493   26.4516  -76.2461 H         1 UNK         0.0793 
    126 H126      -84.7043   25.3261  -74.9634 H         1 UNK         0.0793 
    127 H127      -83.0856   27.1960  -74.8102 H         1 UNK         0.2896 
@<TRIPOS>BOND
     1    1    2 1    
     2    1   67 1    
     3    1   68 1    
     4    1   69 1    
     5    2    3 2    
     6    2    4 am   BACKBONE|DICT|INTERRES
     7    4    5 1    
     8    4   70 1    
     9    5    6 1    
    10    5   65 1    
    11    5   71 1    
    12    6    7 1    
    13    6   72 1    
    14    6   73 1    
    15    7    8 1    
    16    8    9 1    
    17    8   74 1    
    18    8   75 1    
    19    9   10 ar   
    20    9   14 ar   
    21   10   11 ar   
    22   10   76 1    
    23   11   12 ar   
    24   11   48 1    
    25   12   13 ar   
    26   12   77 1    
    27   13   14 ar   
    28   13   15 1    
    29   14   78 1    
    30   15   16 1    
    31   15   79 1    
    32   15   80 1    
    33   16   17 1    
    34   17   18 1    
    35   17   81 1    
    36   17   82 1    
    37   18   19 1    
    38   18   22 1    
    39   18   83 1    
    40   19   20 am   BACKBONE|DICT|INTERRES
    41   19   21 2    
    42   20   84 1    
    43   20   85 1    
    44   22   23 am   BACKBONE|DICT|INTERRES
    45   22   86 1    
    46   23   24 2    
    47   23   25 1    
    48   25   26 1    
    49   25   27 1    
    50   25   87 1    
    51   26   88 1    
    52   26   89 1    
    53   26   90 1    
    54   27   28 am   BACKBONE|DICT|INTERRES
    55   27   91 1    
    56   28   29 2    
    57   28   30 1    
    58   30   31 1    
    59   30   32 1    
    60   30   92 1    
    61   31   93 1    
    62   31   94 1    
    63   31   95 1    
    64   32   33 am   BACKBONE|DICT|INTERRES
    65   32   96 1    
    66   33   34 2    
    67   33   35 1    
    68   35   36 1    
    69   35   37 1    
    70   35   97 1    
    71   36   98 1    
    72   36   99 1    
    73   36  100 1    
    74   37   38 am   BACKBONE|DICT|INTERRES
    75   37  101 1    
    76   38   39 2    
    77   38   40 1    
    78   40   41 1    
    79   40   42 1    
    80   40  102 1    
    81   41  103 1    
    82   41  104 1    
    83   41  105 1    
    84   42   43 am   BACKBONE|DICT|INTERRES
    85   42  106 1    
    86   43   44 2    
    87   43   45 1    
    88   45   46 1    
    89   45   49 1    
    90   45  107 1    
    91   46   47 1    
    92   46  108 1    
    93   46  109 1    
    94   47   48 1    
    95   48  110 1    
    96   48  111 1    
    97   49   50 am   BACKBONE|DICT|INTERRES
    98   49  112 1    
    99   50   51 2    
   100   50   52 1    
   101   52   53 1    
   102   52   54 1    
   103   52  113 1    
   104   53  114 1    
   105   53  115 1    
   106   53  116 1    
   107   54   55 am   BACKBONE|DICT|INTERRES
   108   54  117 1    
   109   55   56 2    
   110   55   57 1    
   111   57   58 1    
   112   57   59 1    
   113   57  118 1    
   114   58  119 1    
   115   58  120 1    
   116   58  121 1    
   117   59   60 am   BACKBONE|DICT|INTERRES
   118   59  122 1    
   119   60   61 2    
   120   60   62 1    
   121   62   63 1    
   122   62   64 1    
   123   62  123 1    
   124   63  124 1    
   125   63  125 1    
   126   63  126 1    
   127   64   65 am   BACKBONE|DICT|INTERRES
   128   64  127 1    
   129   65   66 2    
@<TRIPOS>SUBSTRUCTURE
     1 UNK         1 GROUP             0       ****    0 ROOT    
