@<TRIPOS>MOLECULE
3R135
127   129    1
SMALL
USER_CHARGES


@<TRIPOS>ATOM
      1 CA        -84.7529   25.5064  -70.8156 C.3       0 UNK        -0.1998 
      2 C         -83.3489   25.6346  -71.3867 C.2       0 UNK         0.4909 
      3 O         -82.3820   25.6468  -70.6243 O.2       0 UNK        -0.5240 
      4 N         -83.2360   25.7161  -72.7205 N.am      1 UNK        -0.4739 
      5 CA        -82.0156   25.8734  -73.5324 C.3       1 UNK         0.0864 
      6 C6        -81.1746   27.1291  -73.1860 C.3       11 UNK        -0.0881 
      7 S7        -82.0804   28.6996  -73.3816 S.3       11 UNK        -0.2682 
      8 C8        -81.1867   29.7649  -72.2018 C.3       11 UNK         0.0289 
      9 C9        -79.7360   29.9762  -72.6156 C.ar      11 UNK        -0.0687 
     10 C10       -79.3917   31.0085  -73.4943 C.ar      11 UNK        -0.0823 
     11 C11       -78.0622   31.1909  -73.8923 C.ar      11 UNK        -0.0830 
     12 C12       -77.0755   30.3285  -73.4037 C.ar      11 UNK        -0.1021 
     13 C13       -77.4160   29.2712  -72.5560 C.ar      11 UNK        -0.0753 
     14 C14       -78.7393   29.1195  -72.1399 C.ar      11 UNK        -0.0933 
     15 C15       -76.3873   28.2160  -72.1924 C.3       11 UNK         0.0166 
     16 S16       -75.4718   28.5728  -70.6670 S.3       11 UNK        -0.2615 
     17 C17       -74.6165   26.9676  -70.4447 C.3       11 UNK        -0.0865 
     18 CA        -73.1888   26.9257  -71.0580 C.3       10 UNK         0.0862 
     19 C         -72.4360   25.6120  -70.6940 C.2       10 UNK         0.5551 
     20 N         -71.7875   24.9322  -71.6331 N.am      10 UNK        -0.7319 
     21 O         -72.4256   25.2083  -69.5337 O.2       10 UNK        -0.5018 
     22 N         -73.2172   27.1915  -72.5044 N.am      10 UNK        -0.4509 
     23 C         -72.3470   27.9621  -73.1628 C.2       10 UNK         0.4899 
     24 O         -71.3802   28.5166  -72.6368 O.2       10 UNK        -0.4839 
     25 CA        -72.6324   28.1563  -74.6631 C.3       9 UNK         0.0222 
     26 CB        -71.5730   29.0226  -75.3768 C.3       9 UNK        -0.1966 
     27 N         -72.8501   26.9002  -75.3929 N.am      9 UNK        -0.4218 
     28 C         -71.9911   25.8756  -75.5198 C.2       9 UNK         0.5020 
     29 O         -70.8945   25.8332  -74.9611 O.2       9 UNK        -0.5274 
     30 CA        -72.3900   24.6985  -76.4282 C.3       8 UNK         0.0270 
     31 CB        -72.7849   23.4654  -75.5985 C.3       8 UNK        -0.1976 
     32 N         -73.4557   25.0254  -77.3825 N.am      8 UNK        -0.4313 
     33 C         -73.5841   24.4887  -78.6031 C.2       8 UNK         0.5041 
     34 O         -72.8173   23.6447  -79.0690 O.2       8 UNK        -0.5577 
     35 CA        -74.7556   24.9939  -79.4588 C.3       7 UNK         0.0284 
     36 CB        -76.1039   24.4879  -78.9149 C.3       7 UNK        -0.1958 
     37 N         -74.7511   26.4582  -79.5257 N.am      7 UNK        -0.4454 
     38 C         -74.1802   27.1689  -80.5099 C.2       7 UNK         0.5089 
     39 O         -73.6716   26.6528  -81.5059 O.2       7 UNK        -0.5125 
     40 CA        -74.1139   28.7061  -80.3748 C.3       6 UNK         0.0408 
     41 CB        -74.9367   29.4116  -81.4728 C.3       6 UNK        -0.1791 
     42 N         -74.4174   29.2213  -79.0314 N.am      6 UNK        -0.4762 
     43 C         -75.6074   29.3113  -78.4197 C.2       6 UNK         0.5007 
     44 O         -76.6868   29.0531  -78.9550 O.2       6 UNK        -0.5032 
     45 CA        -75.5588   29.6704  -76.9192 C.3       5 UNK         0.0783 
     46 C46       -75.7886   31.1798  -76.6412 C.3       11 UNK        -0.0857 
     47 S47       -77.5392   31.7113  -76.5769 S.3       11 UNK        -0.2512 
     48 C48       -77.7007   32.3108  -74.8593 C.3       11 UNK         0.0225 
     49 N         -76.4462   28.7992  -76.1452 N.am      5 UNK        -0.4615 
     50 C         -76.3419   27.4675  -76.0806 C.2       4 UNK         0.5053 
     51 O         -75.4012   26.8382  -76.5742 O.2       4 UNK        -0.5105 
     52 CA        -77.5150   26.7337  -75.4096 C.3       4 UNK         0.0263 
     53 CB        -78.6885   26.6544  -76.4010 C.3       4 UNK        -0.1981 
     54 N         -77.2250   25.3803  -74.9181 N.am      4 UNK        -0.4224 
     55 C         -76.2097   24.9951  -74.1277 C.2       3 UNK         0.4895 
     56 O         -75.2844   25.7282  -73.7765 O.2       3 UNK        -0.5091 
     57 CA        -76.2529   23.5343  -73.6280 C.3       3 UNK         0.0250 
     58 CB        -75.2593   23.2652  -72.4750 C.3       3 UNK        -0.1996 
     59 N         -77.6043   23.0867  -73.2574 N.am      3 UNK        -0.4254 
     60 C         -78.4092   23.6403  -72.3369 C.2       2 UNK         0.5004 
     61 O         -78.1066   24.6098  -71.6373 O.2       2 UNK        -0.5226 
     62 CA        -79.8072   23.0175  -72.1830 C.3       2 UNK         0.0269 
     63 CB        -79.9804   22.3820  -70.7939 C.3       2 UNK        -0.1926 
     64 N         -80.8284   24.0457  -72.3753 N.am      2 UNK        -0.4687 
     65 C         -81.1060   24.6263  -73.5482 C.2       1 UNK         0.5165 
     66 O         -80.6512   24.2239  -74.6201 O.2       1 UNK        -0.5079 
     67 H67       -84.8445   24.5793  -70.2503 H         1 UNK         0.0900 
     68 H68       -85.5135   25.5048  -71.5961 H         1 UNK         0.0900 
     69 H69       -84.9599   26.3380  -70.1427 H         1 UNK         0.0900 
     70 H70       -84.0853   25.6726  -73.2669 H         1 UNK         0.2959 
     71 H71       -82.3667   25.9948  -74.5587 H         1 UNK         0.1079 
     72 H72       -80.8035   27.0556  -72.1634 H         1 UNK         0.0837 
     73 H73       -80.2902   27.1878  -73.8227 H         1 UNK         0.0837 
     74 H74       -81.6970   30.7271  -72.1385 H         1 UNK         0.0685 
     75 H75       -81.2393   29.3267  -71.2038 H         1 UNK         0.0685 
     76 H76       -80.1634   31.6632  -73.8761 H         1 UNK         0.1434 
     77 H77       -76.0485   30.4473  -73.7190 H         1 UNK         0.1329 
     78 H78       -78.9973   28.3033  -71.4795 H         1 UNK         0.1335 
     79 H79       -76.8814   27.2473  -72.1007 H         1 UNK         0.0680 
     80 H80       -75.6787   28.1260  -73.0139 H         1 UNK         0.0680 
     81 H81       -74.5685   26.7821  -69.3701 H         1 UNK         0.1032 
     82 H82       -75.2299   26.1626  -70.8534 H         1 UNK         0.1032 
     83 H83       -72.6197   27.7194  -70.5709 H         1 UNK         0.0461 
     84 H84       -71.7509   25.2818  -72.5786 H         1 UNK         0.3453 
     85 H85       -71.2964   24.0888  -71.3836 H         1 UNK         0.3453 
     86 H86       -73.9558   26.7179  -73.0231 H         1 UNK         0.2984 
     87 H87       -73.5779   28.6962  -74.6993 H         1 UNK         0.0554 
     88 H88       -71.8280   29.1844  -76.4236 H         1 UNK         0.0847 
     89 H89       -70.5851   28.5620  -75.3413 H         1 UNK         0.0847 
     90 H90       -71.4898   30.0040  -74.9082 H         1 UNK         0.0847 
     91 H91       -73.7774   26.8048  -75.7981 H         1 UNK         0.3141 
     92 H92       -71.4888   24.4494  -76.9928 H         1 UNK         0.0743 
     93 H93       -73.7136   23.6363  -75.0601 H         1 UNK         0.0784 
     94 H94       -72.9201   22.5877  -76.2306 H         1 UNK         0.0784 
     95 H95       -72.0177   23.2203  -74.8627 H         1 UNK         0.0784 
     96 H96       -74.1629   25.6942  -77.0831 H         1 UNK         0.3213 
     97 H97       -74.6370   24.5793  -80.4625 H         1 UNK         0.0855 
     98 H98       -76.2839   24.7984  -77.8867 H         1 UNK         0.0814 
     99 H99       -76.1402   23.3979  -78.9310 H         1 UNK         0.0814 
    100 H100      -76.9346   24.8475  -79.5221 H         1 UNK         0.0814 
    101 H101      -75.1423   26.9510  -78.7333 H         1 UNK         0.3105 
    102 H102      -73.0687   28.9689  -80.5455 H         1 UNK         0.0547 
    103 H103      -74.5638   29.1491  -82.4635 H         1 UNK         0.0837 
    104 H104      -75.9887   29.1277  -81.4446 H         1 UNK         0.0837 
    105 H105      -74.8765   30.4960  -81.3822 H         1 UNK         0.0837 
    106 H106      -73.5949   29.4565  -78.4923 H         1 UNK         0.3020 
    107 H107      -74.5460   29.4462  -76.5847 H         1 UNK         0.1245 
    108 H108      -75.2762   31.7915  -77.3865 H         1 UNK         0.0781 
    109 H109      -75.3072   31.4386  -75.6980 H         1 UNK         0.0781 
    110 H110      -78.4736   33.0807  -74.8381 H         1 UNK         0.0836 
    111 H111      -76.7836   32.8074  -74.5392 H         1 UNK         0.0836 
    112 H112      -77.2643   29.2524  -75.7619 H         1 UNK         0.3022 
    113 H113      -77.8305   27.3213  -74.5477 H         1 UNK         0.0747 
    114 H114      -78.9712   27.6442  -76.7630 H         1 UNK         0.0793 
    115 H115      -78.4363   26.0514  -77.2742 H         1 UNK         0.0793 
    116 H116      -79.5761   26.2217  -75.9434 H         1 UNK         0.0793 
    117 H117      -77.9237   24.6845  -75.1359 H         1 UNK         0.3047 
    118 H118      -75.9484   22.9192  -74.4758 H         1 UNK         0.0822 
    119 H119      -75.2597   22.2133  -72.1902 H         1 UNK         0.0807 
    120 H120      -75.5003   23.8504  -71.5878 H         1 UNK         0.0807 
    121 H121      -74.2379   23.5205  -72.7582 H         1 UNK         0.0807 
    122 H122      -77.9577   22.3000  -73.7851 H         1 UNK         0.2946 
    123 H123      -79.9478   22.2411  -72.9386 H         1 UNK         0.1144 
    124 H124      -79.8717   23.1189  -69.9967 H         1 UNK         0.0793 
    125 H125      -79.2339   21.6049  -70.6247 H         1 UNK         0.0793 
    126 H126      -80.9617   21.9187  -70.6895 H         1 UNK         0.0793 
    127 H127      -81.2233   24.4752  -71.5422 H         1 UNK         0.2896 
@<TRIPOS>BOND
     1    1    2 1    
     2    1   67 1    
     3    1   68 1    
     4    1   69 1    
     5    2    3 2    
     6    2    4 am   BACKBONE|DICT|INTERRES
     7    4    5 1    
     8    4   70 1    
     9    5    6 1    
    10    5   65 1    
    11    5   71 1    
    12    6    7 1    
    13    6   72 1    
    14    6   73 1    
    15    7    8 1    
    16    8    9 1    
    17    8   74 1    
    18    8   75 1    
    19    9   10 ar   
    20    9   14 ar   
    21   10   11 ar   
    22   10   76 1    
    23   11   12 ar   
    24   11   48 1    
    25   12   13 ar   
    26   12   77 1    
    27   13   14 ar   
    28   13   15 1    
    29   14   78 1    
    30   15   16 1    
    31   15   79 1    
    32   15   80 1    
    33   16   17 1    
    34   17   18 1    
    35   17   81 1    
    36   17   82 1    
    37   18   19 1    
    38   18   22 1    
    39   18   83 1    
    40   19   20 am   BACKBONE|DICT|INTERRES
    41   19   21 2    
    42   20   84 1    
    43   20   85 1    
    44   22   23 am   BACKBONE|DICT|INTERRES
    45   22   86 1    
    46   23   24 2    
    47   23   25 1    
    48   25   26 1    
    49   25   27 1    
    50   25   87 1    
    51   26   88 1    
    52   26   89 1    
    53   26   90 1    
    54   27   28 am   BACKBONE|DICT|INTERRES
    55   27   91 1    
    56   28   29 2    
    57   28   30 1    
    58   30   31 1    
    59   30   32 1    
    60   30   92 1    
    61   31   93 1    
    62   31   94 1    
    63   31   95 1    
    64   32   33 am   BACKBONE|DICT|INTERRES
    65   32   96 1    
    66   33   34 2    
    67   33   35 1    
    68   35   36 1    
    69   35   37 1    
    70   35   97 1    
    71   36   98 1    
    72   36   99 1    
    73   36  100 1    
    74   37   38 am   BACKBONE|DICT|INTERRES
    75   37  101 1    
    76   38   39 2    
    77   38   40 1    
    78   40   41 1    
    79   40   42 1    
    80   40  102 1    
    81   41  103 1    
    82   41  104 1    
    83   41  105 1    
    84   42   43 am   BACKBONE|DICT|INTERRES
    85   42  106 1    
    86   43   44 2    
    87   43   45 1    
    88   45   46 1    
    89   45   49 1    
    90   45  107 1    
    91   46   47 1    
    92   46  108 1    
    93   46  109 1    
    94   47   48 1    
    95   48  110 1    
    96   48  111 1    
    97   49   50 am   BACKBONE|DICT|INTERRES
    98   49  112 1    
    99   50   51 2    
   100   50   52 1    
   101   52   53 1    
   102   52   54 1    
   103   52  113 1    
   104   53  114 1    
   105   53  115 1    
   106   53  116 1    
   107   54   55 am   BACKBONE|DICT|INTERRES
   108   54  117 1    
   109   55   56 2    
   110   55   57 1    
   111   57   58 1    
   112   57   59 1    
   113   57  118 1    
   114   58  119 1    
   115   58  120 1    
   116   58  121 1    
   117   59   60 am   BACKBONE|DICT|INTERRES
   118   59  122 1    
   119   60   61 2    
   120   60   62 1    
   121   62   63 1    
   122   62   64 1    
   123   62  123 1    
   124   63  124 1    
   125   63  125 1    
   126   63  126 1    
   127   64   65 am   BACKBONE|DICT|INTERRES
   128   64  127 1    
   129   65   66 2    
@<TRIPOS>SUBSTRUCTURE
     1 UNK         1 GROUP             0       ****    0 ROOT    
