@<TRIPOS>MOLECULE
3R135
127   129    1
SMALL
USER_CHARGES


@<TRIPOS>ATOM
      1 CA        -83.8581   24.6518  -71.9991 C.3       0 UNK        -0.1998 
      2 C         -82.4792   24.3738  -71.4061 C.2       0 UNK         0.4909 
      3 O         -82.3073   23.3631  -70.7278 O.2       0 UNK        -0.5240 
      4 N         -81.4680   25.2276  -71.6243 N.am      1 UNK        -0.4739 
      5 CA        -81.5000   26.4633  -72.4242 C.3       1 UNK         0.0864 
      6 C6        -80.3201   27.4023  -72.0748 C.3       11 UNK        -0.0881 
      7 S7        -80.2477   27.8492  -70.3028 S.3       11 UNK        -0.2682 
      8 C8        -80.3571   29.6702  -70.3393 C.3       11 UNK         0.0289 
      9 C9        -79.2072   30.2887  -71.1219 C.ar      11 UNK        -0.0687 
     10 C10       -79.4267   30.7909  -72.4073 C.ar      11 UNK        -0.0823 
     11 C11       -78.3629   31.2740  -73.1727 C.ar      11 UNK        -0.0830 
     12 C12       -77.0764   31.2944  -72.6272 C.ar      11 UNK        -0.1021 
     13 C13       -76.8462   30.8049  -71.3388 C.ar      11 UNK        -0.0753 
     14 C14       -77.9168   30.3143  -70.5845 C.ar      11 UNK        -0.0933 
     15 C15       -75.4308   30.7475  -70.7916 C.3       11 UNK         0.0166 
     16 S16       -74.7973   29.0467  -70.8902 S.3       11 UNK        -0.2615 
     17 C17       -72.9905   29.3050  -70.7962 C.3       11 UNK        -0.0865 
     18 CA        -72.1911   28.3007  -71.6685 C.3       10 UNK         0.0862 
     19 C         -72.2397   26.8559  -71.0964 C.2       10 UNK         0.5551 
     20 N         -72.9028   25.9030  -71.7415 N.am      10 UNK        -0.7319 
     21 O         -71.6431   26.5915  -70.0552 O.2       10 UNK        -0.5018 
     22 N         -72.5535   28.3782  -73.0913 N.am      10 UNK        -0.4509 
     23 C         -71.9376   29.1206  -74.0150 C.2       10 UNK         0.4899 
     24 O         -71.0395   29.9266  -73.7632 O.2       10 UNK        -0.4839 
     25 CA        -72.3955   28.8921  -75.4709 C.3       9 UNK         0.0222 
     26 CB        -71.5596   29.6805  -76.5004 C.3       9 UNK        -0.1966 
     27 N         -72.4486   27.4666  -75.8322 N.am      9 UNK        -0.4218 
     28 C         -71.4504   26.5715  -75.7505 C.2       9 UNK         0.5020 
     29 O         -70.2991   26.8468  -75.4093 O.2       9 UNK        -0.5274 
     30 CA        -71.7838   25.1093  -76.0923 C.3       8 UNK         0.0270 
     31 CB        -72.1636   24.3289  -74.8258 C.3       8 UNK        -0.1976 
     32 N         -72.8441   24.9561  -77.0920 N.am      8 UNK        -0.4313 
     33 C         -72.6494   25.1146  -78.4080 C.2       8 UNK         0.5041 
     34 O         -71.5876   25.4962  -78.9023 O.2       8 UNK        -0.5577 
     35 CA        -73.8221   24.7709  -79.3330 C.3       7 UNK         0.0284 
     36 CB        -74.0800   23.2536  -79.3623 C.3       7 UNK        -0.1958 
     37 N         -75.0392   25.4719  -78.9231 N.am      7 UNK        -0.4454 
     38 C         -75.6888   26.3589  -79.6863 C.2       7 UNK         0.5089 
     39 O         -75.3339   26.6784  -80.8220 O.2       7 UNK        -0.5125 
     40 CA        -76.9634   26.9984  -79.1114 C.3       6 UNK         0.0408 
     41 CB        -78.2126   26.2472  -79.5992 C.3       6 UNK        -0.1791 
     42 N         -77.0086   27.1142  -77.6518 N.am      6 UNK        -0.4762 
     43 C         -76.2214   27.9229  -76.9265 C.2       6 UNK         0.5007 
     44 O         -75.2159   28.4779  -77.3676 O.2       6 UNK        -0.5032 
     45 CA        -76.6506   28.1666  -75.4681 C.3       5 UNK         0.0783 
     46 C46       -77.9423   29.0239  -75.4025 C.3       11 UNK        -0.0857 
     47 S47       -77.6050   30.7762  -75.8159 S.3       11 UNK        -0.2512 
     48 C48       -78.6033   31.7148  -74.6096 C.3       11 UNK         0.0225 
     49 N         -76.8071   26.8835  -74.7863 N.am      5 UNK        -0.4615 
     50 C         -75.8387   26.2771  -74.0866 C.2       4 UNK         0.5053 
     51 O         -74.7401   26.7780  -73.8475 O.2       4 UNK        -0.5105 
     52 CA        -76.1105   24.8354  -73.6196 C.3       4 UNK         0.0263 
     53 CB        -76.8154   24.8317  -72.2549 C.3       4 UNK        -0.1981 
     54 N         -76.8875   24.0511  -74.5821 N.am      4 UNK        -0.4224 
     55 C         -76.5448   23.8437  -75.8624 C.2       3 UNK         0.4895 
     56 O         -75.4784   24.2141  -76.3564 O.2       3 UNK        -0.5091 
     57 CA        -77.5894   23.1683  -76.7675 C.3       3 UNK         0.0250 
     58 CB        -77.3049   21.6626  -76.8750 C.3       3 UNK        -0.1996 
     59 N         -78.9874   23.3742  -76.3600 N.am      3 UNK        -0.4254 
     60 C         -79.5969   24.5561  -76.1728 C.2       2 UNK         0.5004 
     61 O         -79.0250   25.6427  -76.2831 O.2       2 UNK        -0.5226 
     62 CA        -81.0741   24.5319  -75.7484 C.3       2 UNK         0.0269 
     63 CB        -81.7508   23.1520  -75.8870 C.3       2 UNK        -0.1926 
     64 N         -81.1688   24.9670  -74.3557 N.am      2 UNK        -0.4687 
     65 C         -81.5173   26.1949  -73.9470 C.2       1 UNK         0.5165 
     66 O         -81.8526   27.1001  -74.7111 O.2       1 UNK        -0.5079 
     67 H67       -84.2285   25.6299  -71.6946 H         1 UNK         0.0900 
     68 H68       -84.5764   23.9091  -71.6523 H         1 UNK         0.0900 
     69 H69       -83.8353   24.6030  -73.0870 H         1 UNK         0.0900 
     70 H70       -80.5818   25.0359  -71.1792 H         1 UNK         0.2959 
     71 H71       -82.4200   27.0022  -72.1907 H         1 UNK         0.1079 
     72 H72       -79.3659   26.9499  -72.3466 H         1 UNK         0.0837 
     73 H73       -80.3943   28.3095  -72.6733 H         1 UNK         0.0837 
     74 H74       -81.3194   29.9638  -70.7616 H         1 UNK         0.0685 
     75 H75       -80.3432   30.0471  -69.3157 H         1 UNK         0.0685 
     76 H76       -80.4220   30.7621  -72.8299 H         1 UNK         0.1434 
     77 H77       -76.2485   31.6509  -73.2249 H         1 UNK         0.1329 
     78 H78       -77.7376   29.9084  -69.5982 H         1 UNK         0.1335 
     79 H79       -74.7836   31.4213  -71.3550 H         1 UNK         0.0680 
     80 H80       -75.4119   31.0862  -69.7547 H         1 UNK         0.0680 
     81 H81       -72.6793   29.2439  -69.7517 H         1 UNK         0.1032 
     82 H82       -72.7492   30.3194  -71.1158 H         1 UNK         0.1032 
     83 H83       -71.1388   28.5798  -71.5856 H         1 UNK         0.0461 
     84 H84       -72.9122   24.9723  -71.3576 H         1 UNK         0.3453 
     85 H85       -73.4658   26.1263  -72.5520 H         1 UNK         0.3453 
     86 H86       -73.3170   27.7725  -73.3840 H         1 UNK         0.2984 
     87 H87       -73.4187   29.2645  -75.5250 H         1 UNK         0.0554 
     88 H88       -71.9395   29.5335  -77.5115 H         1 UNK         0.0847 
     89 H89       -70.5116   29.3793  -76.4879 H         1 UNK         0.0847 
     90 H90       -71.5938   30.7509  -76.2944 H         1 UNK         0.0847 
     91 H91       -73.3574   27.1266  -76.1135 H         1 UNK         0.3141 
     92 H92       -70.8725   24.6583  -76.4920 H         1 UNK         0.0743 
     93 H93       -73.0854   24.7059  -74.3897 H         1 UNK         0.0784 
     94 H94       -72.3016   23.2686  -75.0377 H         1 UNK         0.0784 
     95 H95       -71.3853   24.4110  -74.0656 H         1 UNK         0.0784 
     96 H96       -73.7513   24.6289  -76.7629 H         1 UNK         0.3213 
     97 H97       -73.5273   25.0702  -80.3412 H         1 UNK         0.0855 
     98 H98       -74.3701   22.8648  -78.3862 H         1 UNK         0.0814 
     99 H99       -73.1852   22.7135  -79.6742 H         1 UNK         0.0814 
    100 H100      -74.8716   23.0028  -80.0685 H         1 UNK         0.0814 
    101 H101      -75.3869   25.2739  -77.9905 H         1 UNK         0.3105 
    102 H102      -77.0140   28.0133  -79.5119 H         1 UNK         0.0547 
    103 H103      -78.2363   26.1947  -80.6885 H         1 UNK         0.0837 
    104 H104      -78.2451   25.2250  -79.2247 H         1 UNK         0.0837 
    105 H105      -79.1269   26.7485  -79.2810 H         1 UNK         0.0837 
    106 H106      -77.7927   26.6580  -77.1885 H         1 UNK         0.3020 
    107 H107      -75.8535   28.7296  -74.9758 H         1 UNK         0.1245 
    108 H108      -78.3607   28.9601  -74.3987 H         1 UNK         0.0781 
    109 H109      -78.7218   28.6406  -76.0641 H         1 UNK         0.0781 
    110 H110      -79.6560   31.6122  -74.8781 H         1 UNK         0.0836 
    111 H111      -78.3655   32.7753  -74.7015 H         1 UNK         0.0836 
    112 H112      -77.6515   26.3663  -75.0051 H         1 UNK         0.3022 
    113 H113      -75.1476   24.3381  -73.4989 H         1 UNK         0.0747 
    114 H114      -76.8772   23.8236  -71.8446 H         1 UNK         0.0793 
    115 H115      -76.2706   25.4410  -71.5315 H         1 UNK         0.0793 
    116 H116      -77.8274   25.2287  -72.3202 H         1 UNK         0.0793 
    117 H117      -77.7782   23.6963  -74.2682 H         1 UNK         0.3047 
    118 H118      -77.4728   23.6027  -77.7611 H         1 UNK         0.0822 
    119 H119      -77.9589   21.1855  -77.6052 H         1 UNK         0.0807 
    120 H120      -77.4412   21.1558  -75.9188 H         1 UNK         0.0807 
    121 H121      -76.2785   21.4799  -77.1970 H         1 UNK         0.0807 
    122 H122      -79.5404   22.5381  -76.2367 H         1 UNK         0.2946 
    123 H123      -81.5988   25.2310  -76.4040 H         1 UNK         0.1144 
    124 H124      -81.6847   22.7786  -76.9102 H         1 UNK         0.0793 
    125 H125      -82.8118   23.2175  -75.6446 H         1 UNK         0.0793 
    126 H126      -81.3133   22.4040  -75.2247 H         1 UNK         0.0793 
    127 H127      -80.8939   24.2982  -73.6503 H         1 UNK         0.2896 
@<TRIPOS>BOND
     1    1    2 1    
     2    1   67 1    
     3    1   68 1    
     4    1   69 1    
     5    2    3 2    
     6    2    4 am   BACKBONE|DICT|INTERRES
     7    4    5 1    
     8    4   70 1    
     9    5    6 1    
    10    5   65 1    
    11    5   71 1    
    12    6    7 1    
    13    6   72 1    
    14    6   73 1    
    15    7    8 1    
    16    8    9 1    
    17    8   74 1    
    18    8   75 1    
    19    9   10 ar   
    20    9   14 ar   
    21   10   11 ar   
    22   10   76 1    
    23   11   12 ar   
    24   11   48 1    
    25   12   13 ar   
    26   12   77 1    
    27   13   14 ar   
    28   13   15 1    
    29   14   78 1    
    30   15   16 1    
    31   15   79 1    
    32   15   80 1    
    33   16   17 1    
    34   17   18 1    
    35   17   81 1    
    36   17   82 1    
    37   18   19 1    
    38   18   22 1    
    39   18   83 1    
    40   19   20 am   BACKBONE|DICT|INTERRES
    41   19   21 2    
    42   20   84 1    
    43   20   85 1    
    44   22   23 am   BACKBONE|DICT|INTERRES
    45   22   86 1    
    46   23   24 2    
    47   23   25 1    
    48   25   26 1    
    49   25   27 1    
    50   25   87 1    
    51   26   88 1    
    52   26   89 1    
    53   26   90 1    
    54   27   28 am   BACKBONE|DICT|INTERRES
    55   27   91 1    
    56   28   29 2    
    57   28   30 1    
    58   30   31 1    
    59   30   32 1    
    60   30   92 1    
    61   31   93 1    
    62   31   94 1    
    63   31   95 1    
    64   32   33 am   BACKBONE|DICT|INTERRES
    65   32   96 1    
    66   33   34 2    
    67   33   35 1    
    68   35   36 1    
    69   35   37 1    
    70   35   97 1    
    71   36   98 1    
    72   36   99 1    
    73   36  100 1    
    74   37   38 am   BACKBONE|DICT|INTERRES
    75   37  101 1    
    76   38   39 2    
    77   38   40 1    
    78   40   41 1    
    79   40   42 1    
    80   40  102 1    
    81   41  103 1    
    82   41  104 1    
    83   41  105 1    
    84   42   43 am   BACKBONE|DICT|INTERRES
    85   42  106 1    
    86   43   44 2    
    87   43   45 1    
    88   45   46 1    
    89   45   49 1    
    90   45  107 1    
    91   46   47 1    
    92   46  108 1    
    93   46  109 1    
    94   47   48 1    
    95   48  110 1    
    96   48  111 1    
    97   49   50 am   BACKBONE|DICT|INTERRES
    98   49  112 1    
    99   50   51 2    
   100   50   52 1    
   101   52   53 1    
   102   52   54 1    
   103   52  113 1    
   104   53  114 1    
   105   53  115 1    
   106   53  116 1    
   107   54   55 am   BACKBONE|DICT|INTERRES
   108   54  117 1    
   109   55   56 2    
   110   55   57 1    
   111   57   58 1    
   112   57   59 1    
   113   57  118 1    
   114   58  119 1    
   115   58  120 1    
   116   58  121 1    
   117   59   60 am   BACKBONE|DICT|INTERRES
   118   59  122 1    
   119   60   61 2    
   120   60   62 1    
   121   62   63 1    
   122   62   64 1    
   123   62  123 1    
   124   63  124 1    
   125   63  125 1    
   126   63  126 1    
   127   64   65 am   BACKBONE|DICT|INTERRES
   128   64  127 1    
   129   65   66 2    
@<TRIPOS>SUBSTRUCTURE
     1 UNK         1 GROUP             0       ****    0 ROOT    
