@<TRIPOS>MOLECULE
3R135
127   129    1
SMALL
USER_CHARGES


@<TRIPOS>ATOM
      1 CA        -83.3349   24.0865  -72.2918 C.3       0 UNK        -0.1998 
      2 C         -82.7060   25.0122  -73.3213 C.2       0 UNK         0.4909 
      3 O         -82.5007   24.6149  -74.4705 O.2       0 UNK        -0.5240 
      4 N         -82.4057   26.2512  -72.9129 N.am      1 UNK        -0.4739 
      5 CA        -81.8229   27.2989  -73.7567 C.3       1 UNK         0.0864 
      6 C6        -81.8824   28.6995  -73.0939 C.3       11 UNK        -0.0881 
      7 S7        -81.2153   28.7801  -71.3966 S.3       11 UNK        -0.2682 
      8 C8        -79.9112   30.0454  -71.5492 C.3       11 UNK         0.0289 
      9 C9        -78.5575   29.4471  -71.9050 C.ar      11 UNK        -0.0687 
     10 C10       -77.9438   28.5576  -71.0185 C.ar      11 UNK        -0.0823 
     11 C11       -76.6788   28.0344  -71.2944 C.ar      11 UNK        -0.0830 
     12 C12       -76.0092   28.4397  -72.4519 C.ar      11 UNK        -0.1021 
     13 C13       -76.6208   29.3025  -73.3630 C.ar      11 UNK        -0.0753 
     14 C14       -77.8992   29.8026  -73.0877 C.ar      11 UNK        -0.0933 
     15 C15       -75.9065   29.6542  -74.6590 C.3       11 UNK         0.0166 
     16 S16       -75.4655   31.4132  -74.7659 S.3       11 UNK        -0.2615 
     17 C17       -74.1599   31.5699  -73.5005 C.3       11 UNK        -0.0865 
     18 CA        -72.7379   31.3486  -74.1019 C.3       10 UNK         0.0862 
     19 C         -71.6282   32.2420  -73.4597 C.2       10 UNK         0.5551 
     20 N         -70.3674   31.8239  -73.4611 N.am      10 UNK        -0.7319 
     21 O         -71.8971   33.3446  -72.9887 O.2       10 UNK        -0.5018 
     22 N         -72.3863   29.9196  -74.2099 N.am      10 UNK        -0.4509 
     23 C         -72.1047   29.0960  -73.1853 C.2       10 UNK         0.4899 
     24 O         -72.2110   29.4247  -72.0035 O.2       10 UNK        -0.4839 
     25 CA        -71.5853   27.6792  -73.5072 C.3       9 UNK         0.0222 
     26 CB        -72.4127   26.5887  -72.8061 C.3       9 UNK        -0.1966 
     27 N         -71.5239   27.3956  -74.9422 N.am      9 UNK        -0.4218 
     28 C         -70.5131   27.7605  -75.7465 C.2       9 UNK         0.5020 
     29 O         -69.4922   28.3197  -75.3438 O.2       9 UNK        -0.5274 
     30 CA        -70.6651   27.4906  -77.2568 C.3       8 UNK         0.0270 
     31 CB        -69.9126   26.2088  -77.6499 C.3       8 UNK        -0.1976 
     32 N         -72.0551   27.3874  -77.7088 N.am      8 UNK        -0.4313 
     33 C         -72.9767   28.3570  -77.6215 C.2       8 UNK         0.5041 
     34 O         -72.7373   29.4902  -77.2038 O.2       8 UNK        -0.5577 
     35 CA        -74.4196   27.9770  -78.0043 C.3       7 UNK         0.0284 
     36 CB        -74.7128   28.3642  -79.4619 C.3       7 UNK        -0.1958 
     37 N         -74.7421   26.5567  -77.7999 N.am      7 UNK        -0.4454 
     38 C         -74.6805   25.9180  -76.6230 C.2       7 UNK         0.5089 
     39 O         -74.2952   26.4562  -75.5847 O.2       7 UNK        -0.5125 
     40 CA        -75.0712   24.4308  -76.6295 C.3       6 UNK         0.0408 
     41 CB        -73.8318   23.5204  -76.7457 C.3       6 UNK        -0.1791 
     42 N         -75.9299   24.1070  -75.4815 N.am      6 UNK        -0.4762 
     43 C         -75.5859   23.9061  -74.1984 C.2       6 UNK         0.5007 
     44 O         -74.4270   23.7555  -73.8104 O.2       6 UNK        -0.5032 
     45 CA        -76.7348   23.8367  -73.1633 C.3       5 UNK         0.0783 
     46 C46       -76.8916   25.1585  -72.3741 C.3       11 UNK        -0.0857 
     47 S47       -75.5309   25.4742  -71.1939 S.3       11 UNK        -0.2512 
     48 C48       -76.0588   27.0084  -70.3532 C.3       11 UNK         0.0225 
     49 N         -78.0180   23.4500  -73.7616 N.am      5 UNK        -0.4615 
     50 C         -78.3431   22.1891  -74.0768 C.2       4 UNK         0.5053 
     51 O         -77.5751   21.2344  -73.9573 O.2       4 UNK        -0.5105 
     52 CA        -79.7722   21.9430  -74.5819 C.3       4 UNK         0.0263 
     53 CB        -80.7479   21.8773  -73.3979 C.3       4 UNK        -0.1981 
     54 N         -80.2148   22.9597  -75.5395 N.am      4 UNK        -0.4224 
     55 C         -79.8489   22.9641  -76.8301 C.2       3 UNK         0.4895 
     56 O         -79.1127   22.1175  -77.3378 O.2       3 UNK        -0.5091 
     57 CA        -80.3831   24.1108  -77.7026 C.3       3 UNK         0.0250 
     58 CB        -81.8786   23.9278  -78.0101 C.3       3 UNK        -0.1996 
     59 N         -80.1558   25.4186  -77.0888 N.am      3 UNK        -0.4254 
     60 C         -78.9482   25.9850  -76.9444 C.2       2 UNK         0.5004 
     61 O         -77.9150   25.4895  -77.3844 O.2       2 UNK        -0.5226 
     62 CA        -78.8624   27.3261  -76.1929 C.3       2 UNK         0.0269 
     63 CB        -78.6330   28.4752  -77.1887 C.3       2 UNK        -0.1926 
     64 N         -80.0563   27.6170  -75.3980 N.am      2 UNK        -0.4687 
     65 C         -80.4204   26.9455  -74.2972 C.2       1 UNK         0.5165 
     66 O         -79.7335   26.0599  -73.7770 O.2       1 UNK        -0.5079 
     67 H67       -83.7530   23.2029  -72.7735 H         1 UNK         0.0900 
     68 H68       -82.5910   23.7610  -71.5655 H         1 UNK         0.0900 
     69 H69       -84.1400   24.5911  -71.7581 H         1 UNK         0.0900 
     70 H70       -82.5474   26.5092  -71.9464 H         1 UNK         0.2959 
     71 H71       -82.4676   27.3474  -74.6376 H         1 UNK         0.1079 
     72 H72       -82.9256   29.0143  -73.0348 H         1 UNK         0.0837 
     73 H73       -81.3996   29.4486  -73.7237 H         1 UNK         0.0837 
     74 H74       -79.8174   30.5559  -70.5897 H         1 UNK         0.0685 
     75 H75       -80.2086   30.8118  -72.2663 H         1 UNK         0.0685 
     76 H76       -78.4629   28.2668  -70.1154 H         1 UNK         0.1434 
     77 H77       -75.0279   28.0433  -72.6653 H         1 UNK         0.1329 
     78 H78       -78.3697   30.4788  -73.7881 H         1 UNK         0.1335 
     79 H79       -75.0075   29.0501  -74.7888 H         1 UNK         0.0680 
     80 H80       -76.5549   29.4084  -75.4976 H         1 UNK         0.0680 
     81 H81       -74.3532   30.8985  -72.6634 H         1 UNK         0.1032 
     82 H82       -74.2711   32.5744  -73.0904 H         1 UNK         0.1032 
     83 H83       -72.7610   31.7048  -75.1326 H         1 UNK         0.0461 
     84 H84       -69.6520   32.4083  -73.0583 H         1 UNK         0.3453 
     85 H85       -70.1261   30.9313  -73.8628 H         1 UNK         0.3453 
     86 H86       -72.2966   29.5765  -75.1600 H         1 UNK         0.2984 
     87 H87       -70.5746   27.6238  -73.0978 H         1 UNK         0.0554 
     88 H88       -71.9708   25.6027  -72.9492 H         1 UNK         0.0847 
     89 H89       -73.4330   26.5442  -73.1823 H         1 UNK         0.0847 
     90 H90       -72.4709   26.7618  -71.7308 H         1 UNK         0.0847 
     91 H91       -72.3589   26.9794  -75.3453 H         1 UNK         0.3141 
     92 H92       -70.2103   28.3323  -77.7834 H         1 UNK         0.0743 
     93 H93       -70.3400   25.3264  -77.1715 H         1 UNK         0.0784 
     94 H94       -69.9315   26.0507  -78.7284 H         1 UNK         0.0784 
     95 H95       -68.8644   26.2649  -77.3519 H         1 UNK         0.0784 
     96 H96       -72.3500   26.4914  -78.0682 H         1 UNK         0.3213 
     97 H97       -75.0827   28.5568  -77.3598 H         1 UNK         0.0855 
     98 H98       -74.1009   27.7952  -80.1629 H         1 UNK         0.0814 
     99 H99       -74.5061   29.4218  -79.6327 H         1 UNK         0.0814 
    100 H100      -75.7600   28.1968  -79.7148 H         1 UNK         0.0814 
    101 H101      -75.0859   26.0499  -78.6037 H         1 UNK         0.3105 
    102 H102      -75.6826   24.2413  -77.5121 H         1 UNK         0.0547 
    103 H103      -74.0994   22.4682  -76.6496 H         1 UNK         0.0837 
    104 H104      -73.0809   23.7488  -75.9886 H         1 UNK         0.0837 
    105 H105      -73.3509   23.6455  -77.7162 H         1 UNK         0.0837 
    106 H106      -76.9172   24.2056  -75.6776 H         1 UNK         0.3020 
    107 H107      -76.4589   23.0579  -72.4480 H         1 UNK         0.1245 
    108 H108      -77.8183   25.1436  -71.7975 H         1 UNK         0.0781 
    109 H109      -76.9870   25.9926  -73.0707 H         1 UNK         0.0781 
    110 H110      -75.1958   27.4551  -69.8578 H         1 UNK         0.0836 
    111 H111      -76.7614   26.7383  -69.5634 H         1 UNK         0.0836 
    112 H112      -78.7072   24.1877  -73.8655 H         1 UNK         0.3022 
    113 H113      -79.7892   20.9698  -75.0780 H         1 UNK         0.0747 
    114 H114      -81.7717   21.7115  -73.7335 H         1 UNK         0.0793 
    115 H115      -80.4890   21.0578  -72.7261 H         1 UNK         0.0793 
    116 H116      -80.7260   22.7955  -72.8112 H         1 UNK         0.0793 
    117 H117      -80.8579   23.6702  -75.2009 H         1 UNK         0.3047 
    118 H118      -79.8410   24.0850  -78.6507 H         1 UNK         0.0822 
    119 H119      -82.2373   24.6926  -78.6992 H         1 UNK         0.0807 
    120 H120      -82.4909   23.9756  -77.1091 H         1 UNK         0.0807 
    121 H121      -82.0636   22.9598  -78.4779 H         1 UNK         0.0807 
    122 H122      -80.9591   25.8857  -76.6956 H         1 UNK         0.2946 
    123 H123      -78.0062   27.2686  -75.5160 H         1 UNK         0.1144 
    124 H124      -78.5800   29.4400  -76.6844 H         1 UNK         0.0793 
    125 H125      -79.4311   28.5318  -77.9301 H         1 UNK         0.0793 
    126 H126      -77.6959   28.3385  -77.7303 H         1 UNK         0.0793 
    127 H127      -80.6715   28.3298  -75.7640 H         1 UNK         0.2896 
@<TRIPOS>BOND
     1    1    2 1    
     2    1   67 1    
     3    1   68 1    
     4    1   69 1    
     5    2    3 2    
     6    2    4 am   BACKBONE|DICT|INTERRES
     7    4    5 1    
     8    4   70 1    
     9    5    6 1    
    10    5   65 1    
    11    5   71 1    
    12    6    7 1    
    13    6   72 1    
    14    6   73 1    
    15    7    8 1    
    16    8    9 1    
    17    8   74 1    
    18    8   75 1    
    19    9   10 ar   
    20    9   14 ar   
    21   10   11 ar   
    22   10   76 1    
    23   11   12 ar   
    24   11   48 1    
    25   12   13 ar   
    26   12   77 1    
    27   13   14 ar   
    28   13   15 1    
    29   14   78 1    
    30   15   16 1    
    31   15   79 1    
    32   15   80 1    
    33   16   17 1    
    34   17   18 1    
    35   17   81 1    
    36   17   82 1    
    37   18   19 1    
    38   18   22 1    
    39   18   83 1    
    40   19   20 am   BACKBONE|DICT|INTERRES
    41   19   21 2    
    42   20   84 1    
    43   20   85 1    
    44   22   23 am   BACKBONE|DICT|INTERRES
    45   22   86 1    
    46   23   24 2    
    47   23   25 1    
    48   25   26 1    
    49   25   27 1    
    50   25   87 1    
    51   26   88 1    
    52   26   89 1    
    53   26   90 1    
    54   27   28 am   BACKBONE|DICT|INTERRES
    55   27   91 1    
    56   28   29 2    
    57   28   30 1    
    58   30   31 1    
    59   30   32 1    
    60   30   92 1    
    61   31   93 1    
    62   31   94 1    
    63   31   95 1    
    64   32   33 am   BACKBONE|DICT|INTERRES
    65   32   96 1    
    66   33   34 2    
    67   33   35 1    
    68   35   36 1    
    69   35   37 1    
    70   35   97 1    
    71   36   98 1    
    72   36   99 1    
    73   36  100 1    
    74   37   38 am   BACKBONE|DICT|INTERRES
    75   37  101 1    
    76   38   39 2    
    77   38   40 1    
    78   40   41 1    
    79   40   42 1    
    80   40  102 1    
    81   41  103 1    
    82   41  104 1    
    83   41  105 1    
    84   42   43 am   BACKBONE|DICT|INTERRES
    85   42  106 1    
    86   43   44 2    
    87   43   45 1    
    88   45   46 1    
    89   45   49 1    
    90   45  107 1    
    91   46   47 1    
    92   46  108 1    
    93   46  109 1    
    94   47   48 1    
    95   48  110 1    
    96   48  111 1    
    97   49   50 am   BACKBONE|DICT|INTERRES
    98   49  112 1    
    99   50   51 2    
   100   50   52 1    
   101   52   53 1    
   102   52   54 1    
   103   52  113 1    
   104   53  114 1    
   105   53  115 1    
   106   53  116 1    
   107   54   55 am   BACKBONE|DICT|INTERRES
   108   54  117 1    
   109   55   56 2    
   110   55   57 1    
   111   57   58 1    
   112   57   59 1    
   113   57  118 1    
   114   58  119 1    
   115   58  120 1    
   116   58  121 1    
   117   59   60 am   BACKBONE|DICT|INTERRES
   118   59  122 1    
   119   60   61 2    
   120   60   62 1    
   121   62   63 1    
   122   62   64 1    
   123   62  123 1    
   124   63  124 1    
   125   63  125 1    
   126   63  126 1    
   127   64   65 am   BACKBONE|DICT|INTERRES
   128   64  127 1    
   129   65   66 2    
@<TRIPOS>SUBSTRUCTURE
     1 UNK         1 GROUP             0       ****    0 ROOT    
