@<TRIPOS>MOLECULE
3R135
127   129    1
SMALL
USER_CHARGES


@<TRIPOS>ATOM
      1 CA        -76.5430   31.2296  -75.5680 C.3       0 UNK        -0.1998 
      2 C         -77.5452   30.0936  -75.4365 C.2       0 UNK         0.4909 
      3 O         -78.4924   30.0187  -76.2191 O.2       0 UNK        -0.5240 
      4 N         -77.3332   29.2013  -74.4604 N.am      1 UNK        -0.4739 
      5 CA        -78.1611   28.0461  -74.0819 C.3       1 UNK         0.0864 
      6 C6        -79.5783   28.4561  -73.5905 C.3       11 UNK        -0.0881 
      7 S7        -80.4869   27.1278  -72.7187 S.3       11 UNK        -0.2682 
      8 C8        -80.0226   27.3991  -70.9767 C.3       11 UNK         0.0289 
      9 C9        -78.5301   27.2044  -70.7513 C.ar      11 UNK        -0.0687 
     10 C10       -77.9783   25.9198  -70.7215 C.ar      11 UNK        -0.0823 
     11 C11       -76.5996   25.7391  -70.5659 C.ar      11 UNK        -0.0830 
     12 C12       -75.7715   26.8602  -70.4388 C.ar      11 UNK        -0.1021 
     13 C13       -76.3140   28.1491  -70.4645 C.ar      11 UNK        -0.0753 
     14 C14       -77.6942   28.3140  -70.6042 C.ar      11 UNK        -0.0933 
     15 C15       -75.4193   29.3720  -70.3546 C.3       11 UNK         0.0166 
     16 S16       -75.2036   30.1614  -71.9780 S.3       11 UNK        -0.2615 
     17 C17       -74.3149   31.6738  -71.4860 C.3       11 UNK        -0.0865 
     18 CA        -73.9784   32.5865  -72.6926 C.3       10 UNK         0.0862 
     19 C         -73.3508   33.9191  -72.1968 C.2       10 UNK         0.5551 
     20 N         -74.1622   34.9462  -71.9862 N.am      10 UNK        -0.7319 
     21 O         -72.1479   34.0116  -71.9582 O.2       10 UNK        -0.5018 
     22 N         -73.1323   31.8843  -73.6690 N.am      10 UNK        -0.4509 
     23 C         -72.7535   32.3633  -74.8613 C.2       10 UNK         0.4899 
     24 O         -73.1366   33.4362  -75.3280 O.2       10 UNK        -0.4839 
     25 CA        -71.7812   31.4953  -75.6788 C.3       9 UNK         0.0222 
     26 CB        -70.3292   31.9204  -75.4041 C.3       9 UNK        -0.1966 
     27 N         -71.9273   30.0608  -75.4098 N.am      9 UNK        -0.4218 
     28 C         -72.9027   29.2983  -75.9188 C.2       9 UNK         0.5020 
     29 O         -73.7772   29.7098  -76.6860 O.2       9 UNK        -0.5274 
     30 CA        -72.9078   27.8251  -75.5028 C.3       8 UNK         0.0270 
     31 CB        -73.7070   27.6181  -74.2015 C.3       8 UNK        -0.1976 
     32 N         -73.4920   27.0585  -76.5984 N.am      8 UNK        -0.4313 
     33 C         -73.3835   25.7396  -76.7705 C.2       8 UNK         0.5041 
     34 O         -72.8061   24.9861  -75.9838 O.2       8 UNK        -0.5577 
     35 CA        -74.0071   25.1554  -78.0409 C.3       7 UNK         0.0284 
     36 CB        -72.9370   24.8882  -79.1152 C.3       7 UNK        -0.1958 
     37 N         -74.6807   23.9189  -77.6665 N.am      7 UNK        -0.4454 
     38 C         -75.6669   23.3232  -78.3417 C.2       7 UNK         0.5089 
     39 O         -76.0401   23.6832  -79.4580 O.2       7 UNK        -0.5125 
     40 CA        -76.4071   22.1720  -77.6358 C.3       6 UNK         0.0408 
     41 CB        -75.6940   20.8220  -77.8456 C.3       6 UNK        -0.1791 
     42 N         -76.6947   22.4480  -76.2180 N.am      6 UNK        -0.4762 
     43 C         -75.8523   22.4824  -75.1716 C.2       6 UNK         0.5007 
     44 O         -74.6591   22.1944  -75.2581 O.2       6 UNK        -0.5032 
     45 CA        -76.4080   22.9720  -73.8147 C.3       5 UNK         0.0783 
     46 C46       -75.6775   24.2621  -73.3323 C.3       11 UNK        -0.0857 
     47 S47       -74.7417   24.0202  -71.7896 S.3       11 UNK        -0.2512 
     48 C48       -76.0168   24.3293  -70.5201 C.3       11 UNK         0.0225 
     49 N         -77.8574   23.1906  -73.8645 N.am      5 UNK        -0.4615 
     50 C         -78.7915   22.2584  -73.6497 C.2       4 UNK         0.5053 
     51 O         -78.5290   21.0881  -73.3734 O.2       4 UNK        -0.5105 
     52 CA        -80.2613   22.6864  -73.7706 C.3       4 UNK         0.0263 
     53 CB        -80.7861   23.2116  -72.4244 C.3       4 UNK        -0.1981 
     54 N         -80.4862   23.7007  -74.8101 N.am      4 UNK        -0.4224 
     55 C         -81.4571   23.6239  -75.7345 C.2       3 UNK         0.4895 
     56 O         -82.2219   22.6641  -75.8420 O.2       3 UNK        -0.5091 
     57 CA        -81.6473   24.8140  -76.6968 C.3       3 UNK         0.0250 
     58 CB        -82.7873   25.7184  -76.1997 C.3       3 UNK        -0.1996 
     59 N         -80.4511   25.6319  -76.8945 N.am      3 UNK        -0.4254 
     60 C         -79.3371   25.2360  -77.5246 C.2       2 UNK         0.5004 
     61 O         -79.2172   24.1403  -78.0703 O.2       2 UNK        -0.5226 
     62 CA        -78.1394   26.2088  -77.5078 C.3       2 UNK         0.0269 
     63 CB        -78.0111   26.9414  -78.8516 C.3       2 UNK        -0.1926 
     64 N         -78.1614   27.1958  -76.4188 N.am      2 UNK        -0.4687 
     65 C         -78.1979   26.8994  -75.1140 C.2       1 UNK         0.5165 
     66 O         -78.2705   25.7404  -74.7077 O.2       1 UNK        -0.5079 
     67 H67       -76.1889   31.3019  -76.5961 H         1 UNK         0.0900 
     68 H68       -75.6745   31.0778  -74.9285 H         1 UNK         0.0900 
     69 H69       -77.0072   32.1772  -75.2970 H         1 UNK         0.0900 
     70 H70       -76.5301   29.3429  -73.8601 H         1 UNK         0.2959 
     71 H71       -77.6262   27.6176  -73.2362 H         1 UNK         0.1079 
     72 H72       -80.1892   28.7900  -74.4308 H         1 UNK         0.0837 
     73 H73       -79.5049   29.3153  -72.9223 H         1 UNK         0.0837 
     74 H74       -80.3363   28.3982  -70.6700 H         1 UNK         0.0685 
     75 H75       -80.5775   26.6986  -70.3511 H         1 UNK         0.0685 
     76 H76       -78.6249   25.0611  -70.8304 H         1 UNK         0.1434 
     77 H77       -74.7039   26.7266  -70.3284 H         1 UNK         0.1329 
     78 H78       -78.1113   29.3115  -70.6342 H         1 UNK         0.1335 
     79 H79       -74.4425   29.1022  -69.9502 H         1 UNK         0.0680 
     80 H80       -75.8616   30.0840  -69.6560 H         1 UNK         0.0680 
     81 H81       -73.4053   31.3924  -70.9512 H         1 UNK         0.1032 
     82 H82       -74.9386   32.2103  -70.7679 H         1 UNK         0.1032 
     83 H83       -74.9125   32.8286  -73.2036 H         1 UNK         0.0461 
     84 H84       -73.7764   35.8142  -71.6484 H         1 UNK         0.3453 
     85 H85       -75.1513   34.8765  -72.1690 H         1 UNK         0.3453 
     86 H86       -72.7656   30.9946  -73.3697 H         1 UNK         0.2984 
     87 H87       -71.9886   31.6736  -76.7364 H         1 UNK         0.0554 
     88 H88       -69.6272   31.3641  -76.0254 H         1 UNK         0.0847 
     89 H89       -70.0513   31.7670  -74.3604 H         1 UNK         0.0847 
     90 H90       -70.1854   32.9790  -75.6252 H         1 UNK         0.0847 
     91 H91       -71.2424   29.6376  -74.7992 H         1 UNK         0.3141 
     92 H92       -71.8759   27.4990  -75.3549 H         1 UNK         0.0743 
     93 H93       -73.3221   28.2475  -73.3988 H         1 UNK         0.0784 
     94 H94       -74.7620   27.8584  -74.3328 H         1 UNK         0.0784 
     95 H95       -73.6394   26.5885  -73.8521 H         1 UNK         0.0784 
     96 H96       -73.9540   27.6371  -77.2912 H         1 UNK         0.3213 
     97 H97       -74.7473   25.8571  -78.4323 H         1 UNK         0.0855 
     98 H98       -72.4114   25.8066  -79.3793 H         1 UNK         0.0814 
     99 H99       -73.3790   24.4942  -80.0304 H         1 UNK         0.0814 
    100 H100      -72.1910   24.1719  -78.7684 H         1 UNK         0.0814 
    101 H101      -74.4121   23.5425  -76.7598 H         1 UNK         0.3105 
    102 H102      -77.3844   22.0919  -78.1140 H         1 UNK         0.0547 
    103 H103      -75.6358   20.5798  -78.9074 H         1 UNK         0.0837 
    104 H104      -74.6727   20.8296  -77.4646 H         1 UNK         0.0837 
    105 H105      -76.2303   20.0090  -77.3566 H         1 UNK         0.0837 
    106 H106      -77.6479   22.7288  -76.0336 H         1 UNK         0.3020 
    107 H107      -76.2091   22.1615  -73.1096 H         1 UNK         0.1245 
    108 H108      -76.3692   25.0887  -73.1776 H         1 UNK         0.0781 
    109 H109      -74.9735   24.6394  -74.0764 H         1 UNK         0.0781 
    110 H110      -75.5764   24.1655  -69.5358 H         1 UNK         0.0836 
    111 H111      -76.8030   23.5805  -70.6301 H         1 UNK         0.0836 
    112 H112      -78.1337   24.1445  -74.0951 H         1 UNK         0.3022 
    113 H113      -80.8163   21.7766  -74.0093 H         1 UNK         0.0747 
    114 H114      -81.8606   23.3909  -72.4639 H         1 UNK         0.0793 
    115 H115      -80.6057   22.4940  -71.6227 H         1 UNK         0.0793 
    116 H116      -80.3044   24.1474  -72.1442 H         1 UNK         0.0793 
    117 H117      -79.8905   24.5217  -74.7940 H         1 UNK         0.3047 
    118 H118      -81.9341   24.4031  -77.6673 H         1 UNK         0.0822 
    119 H119      -82.9997   26.5181  -76.9095 H         1 UNK         0.0807 
    120 H120      -82.5491   26.1754  -75.2379 H         1 UNK         0.0807 
    121 H121      -83.7095   25.1499  -76.0703 H         1 UNK         0.0807 
    122 H122      -80.4534   26.5504  -76.4757 H         1 UNK         0.2946 
    123 H123      -77.2463   25.5991  -77.3648 H         1 UNK         0.1144 
    124 H124      -77.9488   26.2311  -79.6777 H         1 UNK         0.0793 
    125 H125      -77.1101   27.5541  -78.8855 H         1 UNK         0.0793 
    126 H126      -78.8672   27.5905  -79.0397 H         1 UNK         0.0793 
    127 H127      -78.1700   28.1806  -76.6704 H         1 UNK         0.2896 
@<TRIPOS>BOND
     1    1    2 1    
     2    1   67 1    
     3    1   68 1    
     4    1   69 1    
     5    2    3 2    
     6    2    4 am   BACKBONE|DICT|INTERRES
     7    4    5 1    
     8    4   70 1    
     9    5    6 1    
    10    5   65 1    
    11    5   71 1    
    12    6    7 1    
    13    6   72 1    
    14    6   73 1    
    15    7    8 1    
    16    8    9 1    
    17    8   74 1    
    18    8   75 1    
    19    9   10 ar   
    20    9   14 ar   
    21   10   11 ar   
    22   10   76 1    
    23   11   12 ar   
    24   11   48 1    
    25   12   13 ar   
    26   12   77 1    
    27   13   14 ar   
    28   13   15 1    
    29   14   78 1    
    30   15   16 1    
    31   15   79 1    
    32   15   80 1    
    33   16   17 1    
    34   17   18 1    
    35   17   81 1    
    36   17   82 1    
    37   18   19 1    
    38   18   22 1    
    39   18   83 1    
    40   19   20 am   BACKBONE|DICT|INTERRES
    41   19   21 2    
    42   20   84 1    
    43   20   85 1    
    44   22   23 am   BACKBONE|DICT|INTERRES
    45   22   86 1    
    46   23   24 2    
    47   23   25 1    
    48   25   26 1    
    49   25   27 1    
    50   25   87 1    
    51   26   88 1    
    52   26   89 1    
    53   26   90 1    
    54   27   28 am   BACKBONE|DICT|INTERRES
    55   27   91 1    
    56   28   29 2    
    57   28   30 1    
    58   30   31 1    
    59   30   32 1    
    60   30   92 1    
    61   31   93 1    
    62   31   94 1    
    63   31   95 1    
    64   32   33 am   BACKBONE|DICT|INTERRES
    65   32   96 1    
    66   33   34 2    
    67   33   35 1    
    68   35   36 1    
    69   35   37 1    
    70   35   97 1    
    71   36   98 1    
    72   36   99 1    
    73   36  100 1    
    74   37   38 am   BACKBONE|DICT|INTERRES
    75   37  101 1    
    76   38   39 2    
    77   38   40 1    
    78   40   41 1    
    79   40   42 1    
    80   40  102 1    
    81   41  103 1    
    82   41  104 1    
    83   41  105 1    
    84   42   43 am   BACKBONE|DICT|INTERRES
    85   42  106 1    
    86   43   44 2    
    87   43   45 1    
    88   45   46 1    
    89   45   49 1    
    90   45  107 1    
    91   46   47 1    
    92   46  108 1    
    93   46  109 1    
    94   47   48 1    
    95   48  110 1    
    96   48  111 1    
    97   49   50 am   BACKBONE|DICT|INTERRES
    98   49  112 1    
    99   50   51 2    
   100   50   52 1    
   101   52   53 1    
   102   52   54 1    
   103   52  113 1    
   104   53  114 1    
   105   53  115 1    
   106   53  116 1    
   107   54   55 am   BACKBONE|DICT|INTERRES
   108   54  117 1    
   109   55   56 2    
   110   55   57 1    
   111   57   58 1    
   112   57   59 1    
   113   57  118 1    
   114   58  119 1    
   115   58  120 1    
   116   58  121 1    
   117   59   60 am   BACKBONE|DICT|INTERRES
   118   59  122 1    
   119   60   61 2    
   120   60   62 1    
   121   62   63 1    
   122   62   64 1    
   123   62  123 1    
   124   63  124 1    
   125   63  125 1    
   126   63  126 1    
   127   64   65 am   BACKBONE|DICT|INTERRES
   128   64  127 1    
   129   65   66 2    
@<TRIPOS>SUBSTRUCTURE
     1 UNK         1 GROUP             0       ****    0 ROOT    
