@<TRIPOS>MOLECULE
3R135
127   129    1
SMALL
USER_CHARGES


@<TRIPOS>ATOM
      1 CA        -84.7639   29.8953  -70.9279 C.3       0 UNK        -0.1998 
      2 C         -83.9800   29.8131  -72.2289 C.2       0 UNK         0.4909 
      3 O         -84.3450   30.4657  -73.2071 O.2       0 UNK        -0.5240 
      4 N         -82.9054   29.0137  -72.2496 N.am      1 UNK        -0.4739 
      5 CA        -82.0429   28.7967  -73.4194 C.3       1 UNK         0.0864 
      6 C6        -80.6393   28.2899  -73.0026 C.3       11 UNK        -0.0881 
      7 S7        -80.6545   26.7111  -72.0785 S.3       11 UNK        -0.2682 
      8 C8        -79.3335   26.9807  -70.8560 C.3       11 UNK         0.0289 
      9 C9        -77.9396   26.7991  -71.4461 C.ar      11 UNK        -0.0687 
     10 C10       -77.2410   25.6034  -71.2465 C.ar      11 UNK        -0.0823 
     11 C11       -75.9259   25.4613  -71.7025 C.ar      11 UNK        -0.0830 
     12 C12       -75.3181   26.5200  -72.3844 C.ar      11 UNK        -0.1021 
     13 C13       -76.0169   27.7054  -72.6215 C.ar      11 UNK        -0.0753 
     14 C14       -77.3231   27.8429  -72.1431 C.ar      11 UNK        -0.0933 
     15 C15       -75.3509   28.8460  -73.3737 C.3       11 UNK         0.0166 
     16 S16       -75.2745   28.4936  -75.1550 S.3       11 UNK        -0.2615 
     17 C17       -74.9160   30.1541  -75.8218 C.3       11 UNK        -0.0865 
     18 CA        -73.5892   30.2231  -76.6356 C.3       10 UNK         0.0862 
     19 C         -73.4058   31.5731  -77.3990 C.2       10 UNK         0.5551 
     20 N         -74.4474   32.0821  -78.0447 N.am      10 UNK        -0.7319 
     21 O         -72.3205   32.1493  -77.4586 O.2       10 UNK        -0.5018 
     22 N         -72.3965   29.8266  -75.8631 N.am      10 UNK        -0.4509 
     23 C         -71.8955   30.4739  -74.8014 C.2       10 UNK         0.4899 
     24 O         -72.4756   31.3943  -74.2215 O.2       10 UNK        -0.4839 
     25 CA        -70.4841   30.0524  -74.3431 C.3       9 UNK         0.0222 
     26 CB        -70.0318   30.7676  -73.0508 C.3       9 UNK        -0.1966 
     27 N         -70.2998   28.6024  -74.2209 N.am      9 UNK        -0.4218 
     28 C         -70.9389   27.7604  -73.3976 C.2       9 UNK         0.5020 
     29 O         -71.8565   28.0882  -72.6448 O.2       9 UNK        -0.5274 
     30 CA        -70.4473   26.2997  -73.4225 C.3       8 UNK         0.0270 
     31 CB        -71.1578   25.4074  -72.3884 C.3       8 UNK        -0.1976 
     32 N         -70.5906   25.7077  -74.7540 N.am      8 UNK        -0.4313 
     33 C         -69.7385   25.8884  -75.7714 C.2       8 UNK         0.5041 
     34 O         -68.7194   26.5764  -75.6914 O.2       8 UNK        -0.5577 
     35 CA        -70.1113   25.2327  -77.1103 C.3       7 UNK         0.0284 
     36 CB        -69.6493   23.7673  -77.1455 C.3       7 UNK        -0.1958 
     37 N         -71.5468   25.3008  -77.3944 N.am      7 UNK        -0.4454 
     38 C         -72.2332   26.4272  -77.6215 C.2       7 UNK         0.5089 
     39 O         -71.7248   27.5486  -77.6135 O.2       7 UNK        -0.5125 
     40 CA        -73.7424   26.2846  -77.8844 C.3       6 UNK         0.0408 
     41 CB        -74.0206   25.7057  -79.2850 C.3       6 UNK        -0.1791 
     42 N         -74.4679   25.5553  -76.8357 N.am      6 UNK        -0.4762 
     43 C         -74.3963   24.2575  -76.5002 C.2       6 UNK         0.5007 
     44 O         -73.6439   23.4508  -77.0486 O.2       6 UNK        -0.5032 
     45 CA        -75.2904   23.7786  -75.3379 C.3       5 UNK         0.0783 
     46 C46       -74.4344   23.5244  -74.0748 C.3       11 UNK        -0.0857 
     47 S47       -75.4155   22.8973  -72.6692 S.3       11 UNK        -0.2512 
     48 C48       -75.1496   24.1845  -71.4085 C.3       11 UNK         0.0225 
     49 N         -76.4123   24.6894  -75.0775 N.am      5 UNK        -0.4615 
     50 C         -77.5143   24.7471  -75.8324 C.2       4 UNK         0.5053 
     51 O         -77.6818   24.0826  -76.8577 O.2       4 UNK        -0.5105 
     52 CA        -78.6129   25.7196  -75.3754 C.3       4 UNK         0.0263 
     53 CB        -78.6931   26.9145  -76.3411 C.3       4 UNK        -0.1981 
     54 N         -79.9240   25.0699  -75.3086 N.am      4 UNK        -0.4224 
     55 C         -80.2318   24.0095  -74.5458 C.2       3 UNK         0.4895 
     56 O         -79.4457   23.4674  -73.7674 O.2       3 UNK        -0.5091 
     57 CA        -81.6764   23.4981  -74.6558 C.3       3 UNK         0.0250 
     58 CB        -82.0157   22.4111  -73.6175 C.3       3 UNK        -0.1996 
     59 N         -82.5983   24.6205  -74.4963 N.am      3 UNK        -0.4254 
     60 C         -83.6150   24.9194  -75.3139 C.2       2 UNK         0.5004 
     61 O         -83.9218   24.2499  -76.3009 O.2       2 UNK        -0.5226 
     62 CA        -84.4330   26.1812  -74.9806 C.3       2 UNK         0.0269 
     63 CB        -85.7655   25.7982  -74.3161 C.3       2 UNK        -0.1926 
     64 N         -83.7248   27.1292  -74.1141 N.am      2 UNK        -0.4687 
     65 C         -82.6833   27.8863  -74.4915 C.2       1 UNK         0.5165 
     66 O         -82.2165   27.8727  -75.6311 O.2       1 UNK        -0.5079 
     67 H67       -84.7833   30.9231  -70.5662 H         1 UNK         0.0900 
     68 H68       -84.3280   29.2701  -70.1488 H         1 UNK         0.0900 
     69 H69       -85.7918   29.5707  -71.0880 H         1 UNK         0.0900 
     70 H70       -82.6458   28.4977  -71.4200 H         1 UNK         0.2959 
     71 H71       -81.9011   29.7651  -73.9052 H         1 UNK         0.1079 
     72 H72       -79.9909   28.1783  -73.8716 H         1 UNK         0.0837 
     73 H73       -80.1691   29.0577  -72.3876 H         1 UNK         0.0837 
     74 H74       -79.4813   26.2775  -70.0350 H         1 UNK         0.0685 
     75 H75       -79.4291   27.9741  -70.4154 H         1 UNK         0.0685 
     76 H76       -77.7113   24.7910  -70.7091 H         1 UNK         0.1434 
     77 H77       -74.2968   26.4375  -72.7276 H         1 UNK         0.1329 
     78 H78       -77.8528   28.7714  -72.3000 H         1 UNK         0.1335 
     79 H79       -75.9006   29.7735  -73.2071 H         1 UNK         0.0680 
     80 H80       -74.3425   29.0111  -72.9927 H         1 UNK         0.0680 
     81 H81       -74.9090   30.8938  -75.0205 H         1 UNK         0.1032 
     82 H82       -75.7688   30.4146  -76.4492 H         1 UNK         0.1032 
     83 H83       -73.6592   29.4832  -77.4311 H         1 UNK         0.0461 
     84 H84       -74.3285   32.9445  -78.5532 H         1 UNK         0.3453 
     85 H85       -75.3421   31.6194  -78.0525 H         1 UNK         0.3453 
     86 H86       -71.8558   29.0799  -76.2861 H         1 UNK         0.2984 
     87 H87       -69.8089   30.3704  -75.1388 H         1 UNK         0.0554 
     88 H88       -69.0148   30.4882  -72.7762 H         1 UNK         0.0847 
     89 H89       -70.6839   30.5325  -72.2089 H         1 UNK         0.0847 
     90 H90       -70.0448   31.8508  -73.1780 H         1 UNK         0.0847 
     91 H91       -69.5891   28.1906  -74.8201 H         1 UNK         0.3141 
     92 H92       -69.3875   26.3160  -73.1580 H         1 UNK         0.0743 
     93 H93       -72.2308   25.3680  -72.5595 H         1 UNK         0.0784 
     94 H94       -70.7741   24.3872  -72.4102 H         1 UNK         0.0784 
     95 H95       -71.0059   25.7881  -71.3775 H         1 UNK         0.0784 
     96 H96       -71.4230   25.1644  -74.9249 H         1 UNK         0.3213 
     97 H97       -69.5879   25.7762  -77.9001 H         1 UNK         0.0855 
     98 H98       -70.1635   23.1611  -76.3985 H         1 UNK         0.0814 
     99 H99       -68.5790   23.6909  -76.9481 H         1 UNK         0.0814 
    100 H100      -69.8297   23.3186  -78.1226 H         1 UNK         0.0814 
    101 H101      -72.0739   24.4305  -77.3939 H         1 UNK         0.3105 
    102 H102      -74.1611   27.2905  -77.8723 H         1 UNK         0.0547 
    103 H103      -73.5579   26.3216  -80.0572 H         1 UNK         0.0837 
    104 H104      -73.6281   24.6953  -79.4016 H         1 UNK         0.0837 
    105 H105      -75.0899   25.6745  -79.4938 H         1 UNK         0.0837 
    106 H106      -75.0884   26.1303  -76.2805 H         1 UNK         0.3020 
    107 H107      -75.7079   22.8179  -75.6498 H         1 UNK         0.1245 
    108 H108      -73.9079   24.4317  -73.7853 H         1 UNK         0.0781 
    109 H109      -73.6598   22.7840  -74.2848 H         1 UNK         0.0781 
    110 H110      -74.0835   24.3944  -71.3133 H         1 UNK         0.0836 
    111 H111      -75.4588   23.7874  -70.4404 H         1 UNK         0.0836 
    112 H112      -76.3635   25.2319  -74.2250 H         1 UNK         0.3022 
    113 H113      -78.3747   26.0890  -74.3758 H         1 UNK         0.0747 
    114 H114      -79.4569   27.6299  -76.0403 H         1 UNK         0.0793 
    115 H115      -77.7456   27.4513  -76.3795 H         1 UNK         0.0793 
    116 H116      -78.9241   26.5942  -77.3579 H         1 UNK         0.0793 
    117 H117      -80.6410   25.4473  -75.9113 H         1 UNK         0.3047 
    118 H118      -81.7745   23.0614  -75.6520 H         1 UNK         0.0822 
    119 H119      -81.3589   21.5470  -73.7259 H         1 UNK         0.0807 
    120 H120      -83.0394   22.0561  -73.7369 H         1 UNK         0.0807 
    121 H121      -81.9057   22.7815  -72.5974 H         1 UNK         0.0807 
    122 H122      -82.4013   25.2484  -73.7281 H         1 UNK         0.2946 
    123 H123      -84.6510   26.6818  -75.9270 H         1 UNK         0.1144 
    124 H124      -86.3361   25.1170  -74.9491 H         1 UNK         0.0793 
    125 H125      -86.3896   26.6752  -74.1432 H         1 UNK         0.0793 
    126 H126      -85.6110   25.3000  -73.3581 H         1 UNK         0.0793 
    127 H127      -84.0430   27.2059  -73.1588 H         1 UNK         0.2896 
@<TRIPOS>BOND
     1    1    2 1    
     2    1   67 1    
     3    1   68 1    
     4    1   69 1    
     5    2    3 2    
     6    2    4 am   BACKBONE|DICT|INTERRES
     7    4    5 1    
     8    4   70 1    
     9    5    6 1    
    10    5   65 1    
    11    5   71 1    
    12    6    7 1    
    13    6   72 1    
    14    6   73 1    
    15    7    8 1    
    16    8    9 1    
    17    8   74 1    
    18    8   75 1    
    19    9   10 ar   
    20    9   14 ar   
    21   10   11 ar   
    22   10   76 1    
    23   11   12 ar   
    24   11   48 1    
    25   12   13 ar   
    26   12   77 1    
    27   13   14 ar   
    28   13   15 1    
    29   14   78 1    
    30   15   16 1    
    31   15   79 1    
    32   15   80 1    
    33   16   17 1    
    34   17   18 1    
    35   17   81 1    
    36   17   82 1    
    37   18   19 1    
    38   18   22 1    
    39   18   83 1    
    40   19   20 am   BACKBONE|DICT|INTERRES
    41   19   21 2    
    42   20   84 1    
    43   20   85 1    
    44   22   23 am   BACKBONE|DICT|INTERRES
    45   22   86 1    
    46   23   24 2    
    47   23   25 1    
    48   25   26 1    
    49   25   27 1    
    50   25   87 1    
    51   26   88 1    
    52   26   89 1    
    53   26   90 1    
    54   27   28 am   BACKBONE|DICT|INTERRES
    55   27   91 1    
    56   28   29 2    
    57   28   30 1    
    58   30   31 1    
    59   30   32 1    
    60   30   92 1    
    61   31   93 1    
    62   31   94 1    
    63   31   95 1    
    64   32   33 am   BACKBONE|DICT|INTERRES
    65   32   96 1    
    66   33   34 2    
    67   33   35 1    
    68   35   36 1    
    69   35   37 1    
    70   35   97 1    
    71   36   98 1    
    72   36   99 1    
    73   36  100 1    
    74   37   38 am   BACKBONE|DICT|INTERRES
    75   37  101 1    
    76   38   39 2    
    77   38   40 1    
    78   40   41 1    
    79   40   42 1    
    80   40  102 1    
    81   41  103 1    
    82   41  104 1    
    83   41  105 1    
    84   42   43 am   BACKBONE|DICT|INTERRES
    85   42  106 1    
    86   43   44 2    
    87   43   45 1    
    88   45   46 1    
    89   45   49 1    
    90   45  107 1    
    91   46   47 1    
    92   46  108 1    
    93   46  109 1    
    94   47   48 1    
    95   48  110 1    
    96   48  111 1    
    97   49   50 am   BACKBONE|DICT|INTERRES
    98   49  112 1    
    99   50   51 2    
   100   50   52 1    
   101   52   53 1    
   102   52   54 1    
   103   52  113 1    
   104   53  114 1    
   105   53  115 1    
   106   53  116 1    
   107   54   55 am   BACKBONE|DICT|INTERRES
   108   54  117 1    
   109   55   56 2    
   110   55   57 1    
   111   57   58 1    
   112   57   59 1    
   113   57  118 1    
   114   58  119 1    
   115   58  120 1    
   116   58  121 1    
   117   59   60 am   BACKBONE|DICT|INTERRES
   118   59  122 1    
   119   60   61 2    
   120   60   62 1    
   121   62   63 1    
   122   62   64 1    
   123   62  123 1    
   124   63  124 1    
   125   63  125 1    
   126   63  126 1    
   127   64   65 am   BACKBONE|DICT|INTERRES
   128   64  127 1    
   129   65   66 2    
@<TRIPOS>SUBSTRUCTURE
     1 UNK         1 GROUP             0       ****    0 ROOT    
