@<TRIPOS>MOLECULE
3R135
127   129    1
SMALL
USER_CHARGES


@<TRIPOS>ATOM
      1 CA        -85.6088   30.1807  -74.9270 C.3       0 UNK        -0.1998 
      2 C         -84.2280   29.5808  -75.1473 C.2       0 UNK         0.4909 
      3 O         -83.9530   29.0558  -76.2273 O.2       0 UNK        -0.5240 
      4 N         -83.3549   29.6636  -74.1363 N.am      1 UNK        -0.4739 
      5 CA        -82.0106   29.0781  -74.1379 C.3       1 UNK         0.0864 
      6 C6        -81.0827   29.7587  -73.0995 C.3       11 UNK        -0.0881 
      7 S7        -81.7518   29.8422  -71.3974 S.3       11 UNK        -0.2682 
      8 C8        -80.9151   28.4394  -70.5732 C.3       11 UNK         0.0289 
      9 C9        -79.3857   28.4953  -70.5286 C.ar      11 UNK        -0.0687 
     10 C10       -78.6854   27.3134  -70.2662 C.ar      11 UNK        -0.0823 
     11 C11       -77.2878   27.2978  -70.2411 C.ar      11 UNK        -0.0830 
     12 C12       -76.5822   28.4818  -70.4718 C.ar      11 UNK        -0.1021 
     13 C13       -77.2647   29.6719  -70.7328 C.ar      11 UNK        -0.0753 
     14 C14       -78.6619   29.6769  -70.7407 C.ar      11 UNK        -0.0933 
     15 C15       -76.5008   30.9562  -71.0130 C.3       11 UNK         0.0166 
     16 S16       -76.3060   31.2405  -72.8037 S.3       11 UNK        -0.2615 
     17 C17       -74.8457   30.2147  -73.2012 C.3       11 UNK        -0.0865 
     18 CA        -73.6203   31.0515  -73.6839 C.3       10 UNK         0.0862 
     19 C         -72.8131   31.7136  -72.5233 C.2       10 UNK         0.5551 
     20 N         -73.4672   32.5007  -71.6820 N.am      10 UNK        -0.7319 
     21 O         -71.5999   31.5585  -72.3924 O.2       10 UNK        -0.5018 
     22 N         -72.7636   30.3177  -74.6321 N.am      10 UNK        -0.4509 
     23 C         -72.1504   29.1504  -74.4004 C.2       10 UNK         0.4899 
     24 O         -72.3420   28.4469  -73.4060 O.2       10 UNK        -0.4839 
     25 CA        -71.0966   28.7272  -75.4311 C.3       9 UNK         0.0222 
     26 CB        -69.7038   29.1785  -74.9384 C.3       9 UNK        -0.1966 
     27 N         -71.1756   27.2772  -75.6069 N.am      9 UNK        -0.4218 
     28 C         -70.3918   26.4993  -76.3642 C.2       9 UNK         0.5020 
     29 O         -69.4553   26.9106  -77.0505 O.2       9 UNK        -0.5274 
     30 CA        -70.7289   25.0016  -76.3793 C.3       8 UNK         0.0270 
     31 CB        -70.7870   24.3984  -74.9631 C.3       8 UNK        -0.1976 
     32 N         -72.0023   24.7931  -77.0645 N.am      8 UNK        -0.4313 
     33 C         -72.1297   24.5788  -78.3812 C.2       8 UNK         0.5041 
     34 O         -71.1753   24.4327  -79.1467 O.2       8 UNK        -0.5577 
     35 CA        -73.5568   24.5070  -78.9569 C.3       7 UNK         0.0284 
     36 CB        -74.0019   23.0416  -79.0912 C.3       7 UNK        -0.1958 
     37 N         -74.5508   25.2454  -78.1736 N.am      7 UNK        -0.4454 
     38 C         -74.5721   26.5772  -78.0201 C.2       7 UNK         0.5089 
     39 O         -73.7957   27.3458  -78.5876 O.2       7 UNK        -0.5125 
     40 CA        -75.6089   27.1486  -77.0360 C.3       6 UNK         0.0408 
     41 CB        -76.9341   27.4383  -77.7563 C.3       6 UNK        -0.1791 
     42 N         -75.8644   26.2903  -75.8744 N.am      6 UNK        -0.4762 
     43 C         -74.9396   25.8974  -74.9844 C.2       6 UNK         0.5007 
     44 O         -73.7458   26.1787  -75.0679 O.2       6 UNK        -0.5032 
     45 CA        -75.4195   24.9979  -73.8363 C.3       5 UNK         0.0783 
     46 C46       -76.1987   25.8227  -72.7889 C.3       11 UNK        -0.0857 
     47 S47       -76.7337   24.8174  -71.3633 S.3       11 UNK        -0.2512 
     48 C48       -76.5374   25.9968  -69.9882 C.3       11 UNK         0.0225 
     49 N         -76.1910   23.8765  -74.3710 N.am      5 UNK        -0.4615 
     50 C         -75.6498   22.8187  -74.9886 C.2       4 UNK         0.5053 
     51 O         -74.4381   22.6441  -75.1169 O.2       4 UNK        -0.5105 
     52 CA        -76.6270   21.7909  -75.5836 C.3       4 UNK         0.0263 
     53 CB        -76.9846   20.7213  -74.5394 C.3       4 UNK        -0.1981 
     54 N         -77.8563   22.3985  -76.1014 N.am      4 UNK        -0.4224 
     55 C         -77.9034   23.2503  -77.1357 C.2       3 UNK         0.4895 
     56 O         -76.9170   23.6099  -77.7765 O.2       3 UNK        -0.5091 
     57 CA        -79.2804   23.8322  -77.4879 C.3       3 UNK         0.0250 
     58 CB        -80.0681   22.8582  -78.3787 C.3       3 UNK        -0.1996 
     59 N         -80.0852   24.1933  -76.3156 N.am      3 UNK        -0.4254 
     60 C         -79.7378   25.1200  -75.4125 C.2       2 UNK         0.5004 
     61 O         -78.6599   25.7207  -75.4168 O.2       2 UNK        -0.5226 
     62 CA        -80.7610   25.4458  -74.3238 C.3       2 UNK         0.0269 
     63 CB        -80.2865   24.9597  -72.9437 C.3       2 UNK        -0.1926 
     64 N         -80.9284   26.8940  -74.3166 N.am      2 UNK        -0.4687 
     65 C         -82.0447   27.5430  -73.9709 C.2       1 UNK         0.5165 
     66 O         -83.0515   26.9801  -73.5308 O.2       1 UNK        -0.5079 
     67 H67       -85.7074   30.6227  -73.9356 H         1 UNK         0.0900 
     68 H68       -86.3729   29.4109  -75.0325 H         1 UNK         0.0900 
     69 H69       -85.8029   30.9580  -75.6656 H         1 UNK         0.0900 
     70 H70       -83.6390   30.0745  -73.2579 H         1 UNK         0.2959 
     71 H71       -81.5799   29.2667  -75.1245 H         1 UNK         0.1079 
     72 H72       -80.0976   29.2898  -73.0969 H         1 UNK         0.0837 
     73 H73       -80.8998   30.7868  -73.4157 H         1 UNK         0.0837 
     74 H74       -81.2842   28.3789  -69.5488 H         1 UNK         0.0685 
     75 H75       -81.2303   27.5191  -71.0668 H         1 UNK         0.0685 
     76 H76       -79.2284   26.3929  -70.0986 H         1 UNK         0.1434 
     77 H77       -75.5011   28.4745  -70.4596 H         1 UNK         0.1329 
     78 H78       -79.1759   30.6069  -70.9362 H         1 UNK         0.1335 
     79 H79       -77.0400   31.8012  -70.5819 H         1 UNK         0.0680 
     80 H80       -75.5266   30.9379  -70.5225 H         1 UNK         0.0680 
     81 H81       -75.1585   29.5266  -73.9884 H         1 UNK         0.1032 
     82 H82       -74.5735   29.5810  -72.3565 H         1 UNK         0.1032 
     83 H83       -73.9983   31.8835  -74.2796 H         1 UNK         0.0461 
     84 H84       -74.4583   32.6512  -71.7939 H         1 UNK         0.3453 
     85 H85       -72.9646   32.9535  -70.9349 H         1 UNK         0.3453 
     86 H86       -72.5098   30.8327  -75.4631 H         1 UNK         0.2984 
     87 H87       -71.3189   29.1983  -76.3903 H         1 UNK         0.0554 
     88 H88       -68.9359   29.0434  -75.6991 H         1 UNK         0.0847 
     89 H89       -69.3969   28.6286  -74.0480 H         1 UNK         0.0847 
     90 H90       -69.7039   30.2384  -74.6795 H         1 UNK         0.0847 
     91 H91       -71.9698   26.8491  -75.1320 H         1 UNK         0.3141 
     92 H92       -69.9317   24.4856  -76.9190 H         1 UNK         0.0743 
     93 H93       -71.5869   24.8241  -74.3573 H         1 UNK         0.0784 
     94 H94       -70.9463   23.3207  -75.0043 H         1 UNK         0.0784 
     95 H95       -69.8500   24.5668  -74.4307 H         1 UNK         0.0784 
     96 H96       -72.8390   24.9632  -76.5180 H         1 UNK         0.3213 
     97 H97       -73.5263   24.9480  -79.9555 H         1 UNK         0.0855 
     98 H98       -74.1046   22.5618  -78.1168 H         1 UNK         0.0814 
     99 H99       -73.2790   22.4625  -79.6675 H         1 UNK         0.0814 
    100 H100      -74.9600   22.9640  -79.6055 H         1 UNK         0.0814 
    101 H101      -75.2904   24.6967  -77.7420 H         1 UNK         0.3105 
    102 H102      -75.2137   28.0933  -76.6570 H         1 UNK         0.0547 
    103 H103      -76.7809   28.1076  -78.6038 H         1 UNK         0.0837 
    104 H104      -77.3901   26.5248  -78.1387 H         1 UNK         0.0837 
    105 H105      -77.6521   27.9168  -77.0900 H         1 UNK         0.0837 
    106 H106      -76.8321   26.0076  -75.7276 H         1 UNK         0.3020 
    107 H107      -74.5283   24.5961  -73.3475 H         1 UNK         0.1245 
    108 H108      -77.0823   26.2899  -73.2278 H         1 UNK         0.0781 
    109 H109      -75.5692   26.6390  -72.4298 H         1 UNK         0.0781 
    110 H110      -75.4742   26.1843  -69.8298 H         1 UNK         0.0836 
    111 H111      -76.9071   25.5380  -69.0701 H         1 UNK         0.0836 
    112 H112      -77.1956   23.9635  -74.3313 H         1 UNK         0.3022 
    113 H113      -76.1201   21.3009  -76.4179 H         1 UNK         0.0747 
    114 H114      -77.6124   19.9405  -74.9691 H         1 UNK         0.0793 
    115 H115      -76.0858   20.2369  -74.1551 H         1 UNK         0.0793 
    116 H116      -77.5139   21.1487  -73.6866 H         1 UNK         0.0793 
    117 H117      -78.7190   22.1625  -75.6332 H         1 UNK         0.3047 
    118 H118      -79.1084   24.7466  -78.0594 H         1 UNK         0.0822 
    119 H119      -81.0011   23.3031  -78.7251 H         1 UNK         0.0807 
    120 H120      -80.3108   21.9330  -77.8546 H         1 UNK         0.0807 
    121 H121      -79.4923   22.5889  -79.2655 H         1 UNK         0.0807 
    122 H122      -80.9879   23.7469  -76.2360 H         1 UNK         0.2946 
    123 H123      -81.7117   24.9660  -74.5682 H         1 UNK         0.1144 
    124 H124      -81.0416   25.1422  -72.1792 H         1 UNK         0.0793 
    125 H125      -79.3728   25.4672  -72.6350 H         1 UNK         0.0793 
    126 H126      -80.0825   23.8884  -72.9502 H         1 UNK         0.0793 
    127 H127      -80.1346   27.4045  -74.6829 H         1 UNK         0.2896 
@<TRIPOS>BOND
     1    1    2 1    
     2    1   67 1    
     3    1   68 1    
     4    1   69 1    
     5    2    3 2    
     6    2    4 am   BACKBONE|DICT|INTERRES
     7    4    5 1    
     8    4   70 1    
     9    5    6 1    
    10    5   65 1    
    11    5   71 1    
    12    6    7 1    
    13    6   72 1    
    14    6   73 1    
    15    7    8 1    
    16    8    9 1    
    17    8   74 1    
    18    8   75 1    
    19    9   10 ar   
    20    9   14 ar   
    21   10   11 ar   
    22   10   76 1    
    23   11   12 ar   
    24   11   48 1    
    25   12   13 ar   
    26   12   77 1    
    27   13   14 ar   
    28   13   15 1    
    29   14   78 1    
    30   15   16 1    
    31   15   79 1    
    32   15   80 1    
    33   16   17 1    
    34   17   18 1    
    35   17   81 1    
    36   17   82 1    
    37   18   19 1    
    38   18   22 1    
    39   18   83 1    
    40   19   20 am   BACKBONE|DICT|INTERRES
    41   19   21 2    
    42   20   84 1    
    43   20   85 1    
    44   22   23 am   BACKBONE|DICT|INTERRES
    45   22   86 1    
    46   23   24 2    
    47   23   25 1    
    48   25   26 1    
    49   25   27 1    
    50   25   87 1    
    51   26   88 1    
    52   26   89 1    
    53   26   90 1    
    54   27   28 am   BACKBONE|DICT|INTERRES
    55   27   91 1    
    56   28   29 2    
    57   28   30 1    
    58   30   31 1    
    59   30   32 1    
    60   30   92 1    
    61   31   93 1    
    62   31   94 1    
    63   31   95 1    
    64   32   33 am   BACKBONE|DICT|INTERRES
    65   32   96 1    
    66   33   34 2    
    67   33   35 1    
    68   35   36 1    
    69   35   37 1    
    70   35   97 1    
    71   36   98 1    
    72   36   99 1    
    73   36  100 1    
    74   37   38 am   BACKBONE|DICT|INTERRES
    75   37  101 1    
    76   38   39 2    
    77   38   40 1    
    78   40   41 1    
    79   40   42 1    
    80   40  102 1    
    81   41  103 1    
    82   41  104 1    
    83   41  105 1    
    84   42   43 am   BACKBONE|DICT|INTERRES
    85   42  106 1    
    86   43   44 2    
    87   43   45 1    
    88   45   46 1    
    89   45   49 1    
    90   45  107 1    
    91   46   47 1    
    92   46  108 1    
    93   46  109 1    
    94   47   48 1    
    95   48  110 1    
    96   48  111 1    
    97   49   50 am   BACKBONE|DICT|INTERRES
    98   49  112 1    
    99   50   51 2    
   100   50   52 1    
   101   52   53 1    
   102   52   54 1    
   103   52  113 1    
   104   53  114 1    
   105   53  115 1    
   106   53  116 1    
   107   54   55 am   BACKBONE|DICT|INTERRES
   108   54  117 1    
   109   55   56 2    
   110   55   57 1    
   111   57   58 1    
   112   57   59 1    
   113   57  118 1    
   114   58  119 1    
   115   58  120 1    
   116   58  121 1    
   117   59   60 am   BACKBONE|DICT|INTERRES
   118   59  122 1    
   119   60   61 2    
   120   60   62 1    
   121   62   63 1    
   122   62   64 1    
   123   62  123 1    
   124   63  124 1    
   125   63  125 1    
   126   63  126 1    
   127   64   65 am   BACKBONE|DICT|INTERRES
   128   64  127 1    
   129   65   66 2    
@<TRIPOS>SUBSTRUCTURE
     1 UNK         1 GROUP             0       ****    0 ROOT    
