@<TRIPOS>MOLECULE
3R135
127   129    1
SMALL
USER_CHARGES


@<TRIPOS>ATOM
      1 CA        -84.9595   27.0930  -70.8104 C.3       0 UNK        -0.1998 
      2 C         -84.6607   27.1887  -72.2989 C.2       0 UNK         0.4909 
      3 O         -85.3586   26.5728  -73.1050 O.2       0 UNK        -0.5240 
      4 N         -83.6293   27.9588  -72.6692 N.am      1 UNK        -0.4739 
      5 CA        -83.1669   28.1497  -74.0508 C.3       1 UNK         0.0864 
      6 C6        -82.2659   29.4057  -74.2037 C.3       11 UNK        -0.0881 
      7 S7        -81.0010   29.5988  -72.8982 S.3       11 UNK        -0.2682 
      8 C8        -79.4989   29.0608  -73.7650 C.3       11 UNK         0.0289 
      9 C9        -78.3300   28.9543  -72.7999 C.ar      11 UNK        -0.0687 
     10 C10       -78.2451   27.8522  -71.9475 C.ar      11 UNK        -0.0823 
     11 C11       -77.1786   27.7233  -71.0546 C.ar      11 UNK        -0.0830 
     12 C12       -76.1979   28.7178  -71.0080 C.ar      11 UNK        -0.1021 
     13 C13       -76.2710   29.8295  -71.8534 C.ar      11 UNK        -0.0753 
     14 C14       -77.3412   29.9427  -72.7496 C.ar      11 UNK        -0.0933 
     15 C15       -75.1986   30.9111  -71.7825 C.3       11 UNK         0.0166 
     16 S16       -73.5817   30.3211  -72.3831 S.3       11 UNK        -0.2615 
     17 C17       -73.9541   30.0109  -74.1445 C.3       11 UNK        -0.0865 
     18 CA        -73.0039   30.6539  -75.1954 C.3       10 UNK         0.0862 
     19 C         -72.7451   32.1814  -75.0148 C.2       10 UNK         0.5551 
     20 N         -71.5572   32.6940  -75.3096 N.am      10 UNK        -0.7319 
     21 O         -73.6556   32.9264  -74.6597 O.2       10 UNK        -0.5018 
     22 N         -71.8515   29.7930  -75.5177 N.am      10 UNK        -0.4509 
     23 C         -70.7320   29.6039  -74.8082 C.2       10 UNK         0.4899 
     24 O         -70.4625   30.1854  -73.7569 O.2       10 UNK        -0.4839 
     25 CA        -69.7348   28.5976  -75.4157 C.3       9 UNK         0.0222 
     26 CB        -68.4117   28.5020  -74.6252 C.3       9 UNK        -0.1966 
     27 N         -70.3254   27.2672  -75.6126 N.am      9 UNK        -0.4218 
     28 C         -70.8128   26.4368  -74.6787 C.2       9 UNK         0.5020 
     29 O         -70.8382   26.6908  -73.4732 O.2       9 UNK        -0.5274 
     30 CA        -71.3353   25.0781  -75.1908 C.3       8 UNK         0.0270 
     31 CB        -71.7459   24.1274  -74.0501 C.3       8 UNK        -0.1976 
     32 N         -72.4622   25.2267  -76.1147 N.am      8 UNK        -0.4313 
     33 C         -72.3745   25.6008  -77.3978 C.2       8 UNK         0.5041 
     34 O         -71.3084   25.8840  -77.9479 O.2       8 UNK        -0.5577 
     35 CA        -73.6847   25.6938  -78.2000 C.3       7 UNK         0.0284 
     36 CB        -73.9806   24.3593  -78.9022 C.3       7 UNK        -0.1958 
     37 N         -74.8367   26.0805  -77.3824 N.am      7 UNK        -0.4454 
     38 C         -75.0008   27.2898  -76.8285 C.2       7 UNK         0.5089 
     39 O         -74.2279   28.2300  -77.0074 O.2       7 UNK        -0.5125 
     40 CA        -76.2210   27.4740  -75.9067 C.3       6 UNK         0.0408 
     41 CB        -77.4659   27.8117  -76.7412 C.3       6 UNK        -0.1791 
     42 N         -76.4815   26.3051  -75.0588 N.am      6 UNK        -0.4762 
     43 C         -75.6257   25.8078  -74.1499 C.2       6 UNK         0.5007 
     44 O         -74.5360   26.3171  -73.8956 O.2       6 UNK        -0.5032 
     45 CA        -76.0000   24.4664  -73.4830 C.3       5 UNK         0.0783 
     46 C46       -76.8877   24.6233  -72.2279 C.3       11 UNK        -0.0857 
     47 S47       -75.9664   25.2415  -70.7799 S.3       11 UNK        -0.2512 
     48 C48       -77.0926   26.5170  -70.1322 C.3       11 UNK         0.0225 
     49 N         -76.6213   23.5631  -74.4498 N.am      5 UNK        -0.4615 
     50 C         -75.9559   22.8962  -75.4000 C.2       4 UNK         0.5053 
     51 O         -74.7336   22.9344  -75.5360 O.2       4 UNK        -0.5105 
     52 CA        -76.8075   22.0722  -76.3804 C.3       4 UNK         0.0263 
     53 CB        -77.0817   20.6706  -75.8127 C.3       4 UNK        -0.1981 
     54 N         -78.0777   22.7267  -76.7110 N.am      4 UNK        -0.4224 
     55 C         -78.1691   23.8694  -77.4057 C.2       3 UNK         0.4895 
     56 O         -77.1967   24.4644  -77.8681 O.2       3 UNK        -0.5091 
     57 CA        -79.5726   24.4677  -77.5926 C.3       3 UNK         0.0250 
     58 CB        -80.2562   23.8566  -78.8260 C.3       3 UNK        -0.1996 
     59 N         -80.4537   24.3352  -76.4268 N.am      3 UNK        -0.4254 
     60 C         -80.2164   24.8551  -75.2139 C.2       2 UNK         0.5004 
     61 O         -79.1647   25.4114  -74.8951 O.2       2 UNK        -0.5226 
     62 CA        -81.3439   24.7291  -74.1749 C.3       2 UNK         0.0269 
     63 CB        -80.8360   24.0347  -72.8997 C.3       2 UNK        -0.1926 
     64 N         -81.9276   26.0257  -73.8139 N.am      2 UNK        -0.4687 
     65 C         -82.5228   26.8834  -74.6589 C.2       1 UNK         0.5165 
     66 O         -82.6172   26.6930  -75.8723 O.2       1 UNK        -0.5079 
     67 H67       -85.9713   27.4430  -70.6077 H         1 UNK         0.0900 
     68 H68       -84.2685   27.6913  -70.2166 H         1 UNK         0.0900 
     69 H69       -84.8836   26.0579  -70.4784 H         1 UNK         0.0900 
     70 H70       -83.0898   28.4499  -71.9690 H         1 UNK         0.2959 
     71 H71       -84.0589   28.3310  -74.6555 H         1 UNK         0.1079 
     72 H72       -81.7985   29.4428  -75.1901 H         1 UNK         0.0837 
     73 H73       -82.8977   30.2940  -74.1575 H         1 UNK         0.0837 
     74 H74       -79.6786   28.0874  -74.2227 H         1 UNK         0.0685 
     75 H75       -79.2726   29.7561  -74.5748 H         1 UNK         0.0685 
     76 H76       -79.0177   27.0968  -71.9838 H         1 UNK         0.1434 
     77 H77       -75.3694   28.6234  -70.3191 H         1 UNK         0.1329 
     78 H78       -77.4079   30.8008  -73.4041 H         1 UNK         0.1335 
     79 H79       -75.4930   31.7933  -72.3536 H         1 UNK         0.0680 
     80 H80       -75.0906   31.2390  -70.7477 H         1 UNK         0.0680 
     81 H81       -74.9687   30.3514  -74.3522 H         1 UNK         0.1032 
     82 H82       -73.9808   28.9298  -74.2832 H         1 UNK         0.1032 
     83 H83       -73.5657   30.6357  -76.1296 H         1 UNK         0.0461 
     84 H84       -71.4066   33.6854  -75.2093 H         1 UNK         0.3453 
     85 H85       -70.8007   32.0914  -75.5901 H         1 UNK         0.3453 
     86 H86       -71.9668   29.2555  -76.3657 H         1 UNK         0.2984 
     87 H87       -69.4890   28.9708  -76.4111 H         1 UNK         0.0554 
     88 H88       -67.9231   29.4754  -74.5652 H         1 UNK         0.0847 
     89 H89       -68.5712   28.1577  -73.6029 H         1 UNK         0.0847 
     90 H90       -67.7113   27.8178  -75.1038 H         1 UNK         0.0847 
     91 H91       -70.4089   26.9502  -76.5763 H         1 UNK         0.3141 
     92 H92       -70.5122   24.6019  -75.7281 H         1 UNK         0.0743 
     93 H93       -70.9072   23.9384  -73.3789 H         1 UNK         0.0784 
     94 H94       -72.5555   24.5426  -73.4495 H         1 UNK         0.0784 
     95 H95       -72.0759   23.1625  -74.4358 H         1 UNK         0.0784 
     96 H96       -73.3813   25.0476  -75.7315 H         1 UNK         0.3213 
     97 H97       -73.5458   26.4588  -78.9670 H         1 UNK         0.0855 
     98 H98       -73.1472   24.0594  -79.5389 H         1 UNK         0.0814 
     99 H99       -74.8637   24.4328  -79.5372 H         1 UNK         0.0814 
    100 H100      -74.1507   23.5551  -78.1855 H         1 UNK         0.0814 
    101 H101      -75.5774   25.3930  -77.2718 H         1 UNK         0.3105 
    102 H102      -76.0290   28.3149  -75.2402 H         1 UNK         0.0547 
    103 H103      -77.3472   28.7761  -77.2363 H         1 UNK         0.0837 
    104 H104      -77.6443   27.0715  -77.5200 H         1 UNK         0.0837 
    105 H105      -78.3624   27.8689  -76.1277 H         1 UNK         0.0837 
    106 H106      -77.3932   25.8623  -75.1570 H         1 UNK         0.3020 
    107 H107      -75.0631   24.0013  -73.1660 H         1 UNK         0.1245 
    108 H108      -77.2957   23.6530  -71.9401 H         1 UNK         0.0781 
    109 H109      -77.7513   25.2478  -72.4472 H         1 UNK         0.0781 
    110 H110      -76.7370   26.8344  -69.1508 H         1 UNK         0.0836 
    111 H111      -78.0802   26.0822  -69.9695 H         1 UNK         0.0836 
    112 H112      -77.6301   23.5284  -74.4481 H         1 UNK         0.3022 
    113 H113      -76.2336   21.9613  -77.3031 H         1 UNK         0.0747 
    114 H114      -77.6173   20.0496  -76.5310 H         1 UNK         0.0793 
    115 H115      -76.1484   20.1574  -75.5763 H         1 UNK         0.0793 
    116 H116      -77.6722   20.7114  -74.8965 H         1 UNK         0.0793 
    117 H117      -78.9259   22.2952  -76.3736 H         1 UNK         0.3047 
    118 H118      -79.4464   25.5362  -77.7756 H         1 UNK         0.0822 
    119 H119      -81.2027   24.3529  -79.0418 H         1 UNK         0.0807 
    120 H120      -80.4565   22.7925  -78.6937 H         1 UNK         0.0807 
    121 H121      -79.6289   23.9625  -79.7124 H         1 UNK         0.0807 
    122 H122      -81.3522   23.9068  -76.5976 H         1 UNK         0.2946 
    123 H123      -82.1425   24.1158  -74.5978 H         1 UNK         0.1144 
    124 H124      -81.6525   23.8372  -72.2048 H         1 UNK         0.0793 
    125 H125      -80.0937   24.6392  -72.3782 H         1 UNK         0.0793 
    126 H126      -80.3719   23.0753  -73.1323 H         1 UNK         0.0793 
    127 H127      -81.8985   26.2791  -72.8375 H         1 UNK         0.2896 
@<TRIPOS>BOND
     1    1    2 1    
     2    1   67 1    
     3    1   68 1    
     4    1   69 1    
     5    2    3 2    
     6    2    4 am   BACKBONE|DICT|INTERRES
     7    4    5 1    
     8    4   70 1    
     9    5    6 1    
    10    5   65 1    
    11    5   71 1    
    12    6    7 1    
    13    6   72 1    
    14    6   73 1    
    15    7    8 1    
    16    8    9 1    
    17    8   74 1    
    18    8   75 1    
    19    9   10 ar   
    20    9   14 ar   
    21   10   11 ar   
    22   10   76 1    
    23   11   12 ar   
    24   11   48 1    
    25   12   13 ar   
    26   12   77 1    
    27   13   14 ar   
    28   13   15 1    
    29   14   78 1    
    30   15   16 1    
    31   15   79 1    
    32   15   80 1    
    33   16   17 1    
    34   17   18 1    
    35   17   81 1    
    36   17   82 1    
    37   18   19 1    
    38   18   22 1    
    39   18   83 1    
    40   19   20 am   BACKBONE|DICT|INTERRES
    41   19   21 2    
    42   20   84 1    
    43   20   85 1    
    44   22   23 am   BACKBONE|DICT|INTERRES
    45   22   86 1    
    46   23   24 2    
    47   23   25 1    
    48   25   26 1    
    49   25   27 1    
    50   25   87 1    
    51   26   88 1    
    52   26   89 1    
    53   26   90 1    
    54   27   28 am   BACKBONE|DICT|INTERRES
    55   27   91 1    
    56   28   29 2    
    57   28   30 1    
    58   30   31 1    
    59   30   32 1    
    60   30   92 1    
    61   31   93 1    
    62   31   94 1    
    63   31   95 1    
    64   32   33 am   BACKBONE|DICT|INTERRES
    65   32   96 1    
    66   33   34 2    
    67   33   35 1    
    68   35   36 1    
    69   35   37 1    
    70   35   97 1    
    71   36   98 1    
    72   36   99 1    
    73   36  100 1    
    74   37   38 am   BACKBONE|DICT|INTERRES
    75   37  101 1    
    76   38   39 2    
    77   38   40 1    
    78   40   41 1    
    79   40   42 1    
    80   40  102 1    
    81   41  103 1    
    82   41  104 1    
    83   41  105 1    
    84   42   43 am   BACKBONE|DICT|INTERRES
    85   42  106 1    
    86   43   44 2    
    87   43   45 1    
    88   45   46 1    
    89   45   49 1    
    90   45  107 1    
    91   46   47 1    
    92   46  108 1    
    93   46  109 1    
    94   47   48 1    
    95   48  110 1    
    96   48  111 1    
    97   49   50 am   BACKBONE|DICT|INTERRES
    98   49  112 1    
    99   50   51 2    
   100   50   52 1    
   101   52   53 1    
   102   52   54 1    
   103   52  113 1    
   104   53  114 1    
   105   53  115 1    
   106   53  116 1    
   107   54   55 am   BACKBONE|DICT|INTERRES
   108   54  117 1    
   109   55   56 2    
   110   55   57 1    
   111   57   58 1    
   112   57   59 1    
   113   57  118 1    
   114   58  119 1    
   115   58  120 1    
   116   58  121 1    
   117   59   60 am   BACKBONE|DICT|INTERRES
   118   59  122 1    
   119   60   61 2    
   120   60   62 1    
   121   62   63 1    
   122   62   64 1    
   123   62  123 1    
   124   63  124 1    
   125   63  125 1    
   126   63  126 1    
   127   64   65 am   BACKBONE|DICT|INTERRES
   128   64  127 1    
   129   65   66 2    
@<TRIPOS>SUBSTRUCTURE
     1 UNK         1 GROUP             0       ****    0 ROOT    
