@<TRIPOS>MOLECULE
3R135
127   129    1
SMALL
USER_CHARGES


@<TRIPOS>ATOM
      1 CA        -83.7773   26.8036  -70.8628 C.3       0 UNK        -0.1998 
      2 C         -82.8511   26.9265  -72.0634 C.2       0 UNK         0.4909 
      3 O         -81.8461   26.2180  -72.1285 O.2       0 UNK        -0.5240 
      4 N         -83.1798   27.8308  -72.9987 N.am      1 UNK        -0.4739 
      5 CA        -82.4560   28.0990  -74.2524 C.3       1 UNK         0.0864 
      6 C6        -81.0221   28.6680  -74.0156 C.3       11 UNK        -0.0881 
      7 S7        -81.0575   30.3394  -73.2798 S.3       11 UNK        -0.2682 
      8 C8        -80.7701   30.0292  -71.5069 C.3       11 UNK         0.0289 
      9 C9        -79.3514   29.5644  -71.2099 C.ar      11 UNK        -0.0687 
     10 C10       -79.1032   28.2331  -70.8595 C.ar      11 UNK        -0.0823 
     11 C11       -77.8068   27.8037  -70.5573 C.ar      11 UNK        -0.0830 
     12 C12       -76.7615   28.7337  -70.5741 C.ar      11 UNK        -0.1021 
     13 C13       -76.9862   30.0507  -70.9800 C.ar      11 UNK        -0.0753 
     14 C14       -78.2863   30.4682  -71.2775 C.ar      11 UNK        -0.0933 
     15 C15       -75.8082   30.9939  -71.1518 C.3       11 UNK         0.0166 
     16 S16       -75.1683   30.8910  -72.8563 S.3       11 UNK        -0.2615 
     17 C17       -73.3993   31.2841  -72.6174 C.3       11 UNK        -0.0865 
     18 CA        -72.4511   30.0752  -72.8570 C.3       10 UNK         0.0862 
     19 C         -72.6098   28.9344  -71.8116 C.2       10 UNK         0.5551 
     20 N         -72.6213   27.6690  -72.2113 N.am      10 UNK        -0.7319 
     21 O         -72.6907   29.1986  -70.6148 O.2       10 UNK        -0.5018 
     22 N         -72.4718   29.6137  -74.2560 N.am      10 UNK        -0.4509 
     23 C         -71.7019   30.0994  -75.2361 C.2       10 UNK         0.4899 
     24 O         -70.8850   31.0093  -75.0804 O.2       10 UNK        -0.4839 
     25 CA        -71.8814   29.4495  -76.6213 C.3       9 UNK         0.0222 
     26 CB        -70.9433   30.0330  -77.6992 C.3       9 UNK        -0.1966 
     27 N         -71.7789   27.9875  -76.5676 N.am      9 UNK        -0.4218 
     28 C         -70.7232   27.2374  -76.2164 C.2       9 UNK         0.5020 
     29 O         -69.6218   27.6943  -75.9086 O.2       9 UNK        -0.5274 
     30 CA        -70.9256   25.7076  -76.1926 C.3       8 UNK         0.0270 
     31 CB        -71.0677   25.2040  -74.7472 C.3       8 UNK        -0.1976 
     32 N         -72.0821   25.2500  -76.9696 N.am      8 UNK        -0.4313 
     33 C         -72.1562   25.2521  -78.3084 C.2       8 UNK         0.5041 
     34 O         -71.2226   25.5647  -79.0480 O.2       8 UNK        -0.5577 
     35 CA        -73.5170   24.8824  -78.9215 C.3       7 UNK         0.0284 
     36 CB        -73.6889   23.3571  -79.0118 C.3       7 UNK        -0.1958 
     37 N         -74.6274   25.4671  -78.1648 N.am      7 UNK        -0.4454 
     38 C         -74.9422   26.7708  -78.1704 C.2       7 UNK         0.5089 
     39 O         -74.3815   27.6092  -78.8751 O.2       7 UNK        -0.5125 
     40 CA        -76.0395   27.2251  -77.1950 C.3       6 UNK         0.0408 
     41 CB        -77.4264   27.1297  -77.8505 C.3       6 UNK        -0.1791 
     42 N         -76.0262   26.4556  -75.9492 N.am      6 UNK        -0.4762 
     43 C         -75.1015   26.5998  -74.9867 C.2       6 UNK         0.5007 
     44 O         -74.1745   27.4072  -75.0462 O.2       6 UNK        -0.5032 
     45 CA        -75.2138   25.6933  -73.7440 C.3       5 UNK         0.0783 
     46 C46       -76.1128   26.3981  -72.7090 C.3       11 UNK        -0.0857 
     47 S47       -76.0512   25.6365  -71.0539 S.3       11 UNK        -0.2512 
     48 C48       -77.5489   26.3271  -70.2535 C.3       11 UNK         0.0225 
     49 N         -75.6888   24.3434  -74.0476 N.am      5 UNK        -0.4615 
     50 C         -75.1623   23.5045  -74.9496 C.2       4 UNK         0.5053 
     51 O         -74.1132   23.7254  -75.5551 O.2       4 UNK        -0.5105 
     52 CA        -75.9884   22.2473  -75.2921 C.3       4 UNK         0.0263 
     53 CB        -75.4358   21.0260  -74.5418 C.3       4 UNK        -0.1981 
     54 N         -77.4305   22.3776  -75.0208 N.am      4 UNK        -0.4224 
     55 C         -78.2271   23.3381  -75.5158 C.2       3 UNK         0.4895 
     56 O         -77.8305   24.2049  -76.2994 O.2       3 UNK        -0.5091 
     57 CA        -79.6697   23.3840  -74.9787 C.3       3 UNK         0.0250 
     58 CB        -79.6848   23.5671  -73.4486 C.3       3 UNK        -0.1996 
     59 N         -80.4085   24.4980  -75.5718 N.am      3 UNK        -0.4254 
     60 C         -80.9703   24.5063  -76.7869 C.2       2 UNK         0.5004 
     61 O         -81.0493   23.5089  -77.5068 O.2       2 UNK        -0.5226 
     62 CA        -81.5011   25.8635  -77.2995 C.3       2 UNK         0.0269 
     63 CB        -82.7898   25.7149  -78.1373 C.3       2 UNK        -0.1926 
     64 N         -81.6560   26.8949  -76.2567 N.am      2 UNK        -0.4687 
     65 C         -82.5070   26.8844  -75.2173 C.2       1 UNK         0.5165 
     66 O         -83.3279   25.9821  -75.0311 O.2       1 UNK        -0.5079 
     67 H67       -84.6139   27.4998  -70.9189 H         1 UNK         0.0900 
     68 H68       -84.1799   25.7928  -70.8034 H         1 UNK         0.0900 
     69 H69       -83.2279   27.0067  -69.9439 H         1 UNK         0.0900 
     70 H70       -84.0338   28.3583  -72.8842 H         1 UNK         0.2959 
     71 H71       -83.0328   28.8712  -74.7644 H         1 UNK         0.1079 
     72 H72       -80.4190   27.9956  -73.4053 H         1 UNK         0.0837 
     73 H73       -80.4756   28.7815  -74.9519 H         1 UNK         0.0837 
     74 H74       -81.5010   29.3114  -71.1355 H         1 UNK         0.0685 
     75 H75       -80.9583   30.9546  -70.9608 H         1 UNK         0.0685 
     76 H76       -79.9217   27.5265  -70.8342 H         1 UNK         0.1434 
     77 H77       -75.7532   28.4137  -70.3469 H         1 UNK         0.1329 
     78 H78       -78.4674   31.4894  -71.5842 H         1 UNK         0.1335 
     79 H79       -76.1014   32.0217  -70.9331 H         1 UNK         0.0680 
     80 H80       -75.0265   30.7337  -70.4365 H         1 UNK         0.0680 
     81 H81       -73.1400   32.0894  -73.3060 H         1 UNK         0.1032 
     82 H82       -73.2386   31.7005  -71.6215 H         1 UNK         0.1032 
     83 H83       -71.4408   30.4376  -72.6586 H         1 UNK         0.0461 
     84 H84       -72.5252   27.4438  -73.1868 H         1 UNK         0.3453 
     85 H85       -72.7029   26.9414  -71.5194 H         1 UNK         0.3453 
     86 H86       -73.1407   28.8791  -74.4749 H         1 UNK         0.2984 
     87 H87       -72.9056   29.6667  -76.9288 H         1 UNK         0.0554 
     88 H88       -71.1220   29.5712  -78.6703 H         1 UNK         0.0847 
     89 H89       -69.8923   29.8885  -77.4471 H         1 UNK         0.0847 
     90 H90       -71.1038   31.1054  -77.8158 H         1 UNK         0.0847 
     91 H91       -72.6493   27.4972  -76.7250 H         1 UNK         0.3141 
     92 H92       -70.0290   25.2567  -76.6233 H         1 UNK         0.0743 
     93 H93       -71.9692   25.5905  -74.2741 H         1 UNK         0.0784 
     94 H94       -71.1138   24.1153  -74.7105 H         1 UNK         0.0784 
     95 H95       -70.2178   25.5133  -74.1370 H         1 UNK         0.0784 
     96 H96       -72.8733   24.8837  -76.4446 H         1 UNK         0.3213 
     97 H97       -73.5456   25.2859  -79.9363 H         1 UNK         0.0855 
     98 H98       -73.6576   22.8814  -78.0314 H         1 UNK         0.0814 
     99 H99       -72.8933   22.9134  -79.6118 H         1 UNK         0.0814 
    100 H100      -74.6352   23.0917  -79.4834 H         1 UNK         0.0814 
    101 H101      -75.1250   24.8576  -77.5309 H         1 UNK         0.3105 
    102 H102      -75.8552   28.2734  -76.9495 H         1 UNK         0.0547 
    103 H103      -77.4778   27.7560  -78.7420 H         1 UNK         0.0837 
    104 H104      -77.6622   26.1100  -78.1571 H         1 UNK         0.0837 
    105 H105      -78.2101   27.4660  -77.1720 H         1 UNK         0.0837 
    106 H106      -76.7302   25.7266  -75.8612 H         1 UNK         0.3020 
    107 H107      -74.2109   25.5922  -73.3274 H         1 UNK         0.1245 
    108 H108      -77.1490   26.4309  -73.0527 H         1 UNK         0.0781 
    109 H109      -75.7913   27.4352  -72.6022 H         1 UNK         0.0781 
    110 H110      -77.4637   26.1975  -69.1740 H         1 UNK         0.0836 
    111 H111      -78.4027   25.7249  -70.5689 H         1 UNK         0.0836 
    112 H112      -76.5359   24.0617  -73.5786 H         1 UNK         0.3022 
    113 H113      -75.8736   22.0731  -76.3639 H         1 UNK         0.0747 
    114 H114      -75.9393   20.1090  -74.8486 H         1 UNK         0.0793 
    115 H115      -74.3721   20.8918  -74.7452 H         1 UNK         0.0793 
    116 H116      -75.5503   21.1290  -73.4619 H         1 UNK         0.0793 
    117 H117      -77.8277   21.7023  -74.3832 H         1 UNK         0.3047 
    118 H118      -80.1645   22.4448  -75.2350 H         1 UNK         0.0822 
    119 H119      -79.1477   24.4657  -73.1410 H         1 UNK         0.0807 
    120 H120      -79.2297   22.7197  -72.9352 H         1 UNK         0.0807 
    121 H121      -80.7054   23.6520  -73.0732 H         1 UNK         0.0807 
    122 H122      -80.3856   25.3688  -75.0637 H         1 UNK         0.2946 
    123 H123      -80.7243   26.2345  -77.9706 H         1 UNK         0.1144 
    124 H124      -83.1382   26.6798  -78.5055 H         1 UNK         0.0793 
    125 H125      -83.5987   25.2612  -77.5642 H         1 UNK         0.0793 
    126 H126      -82.6191   25.0815  -79.0087 H         1 UNK         0.0793 
    127 H127      -81.0361   27.6879  -76.3485 H         1 UNK         0.2896 
@<TRIPOS>BOND
     1    1    2 1    
     2    1   67 1    
     3    1   68 1    
     4    1   69 1    
     5    2    3 2    
     6    2    4 am   BACKBONE|DICT|INTERRES
     7    4    5 1    
     8    4   70 1    
     9    5    6 1    
    10    5   65 1    
    11    5   71 1    
    12    6    7 1    
    13    6   72 1    
    14    6   73 1    
    15    7    8 1    
    16    8    9 1    
    17    8   74 1    
    18    8   75 1    
    19    9   10 ar   
    20    9   14 ar   
    21   10   11 ar   
    22   10   76 1    
    23   11   12 ar   
    24   11   48 1    
    25   12   13 ar   
    26   12   77 1    
    27   13   14 ar   
    28   13   15 1    
    29   14   78 1    
    30   15   16 1    
    31   15   79 1    
    32   15   80 1    
    33   16   17 1    
    34   17   18 1    
    35   17   81 1    
    36   17   82 1    
    37   18   19 1    
    38   18   22 1    
    39   18   83 1    
    40   19   20 am   BACKBONE|DICT|INTERRES
    41   19   21 2    
    42   20   84 1    
    43   20   85 1    
    44   22   23 am   BACKBONE|DICT|INTERRES
    45   22   86 1    
    46   23   24 2    
    47   23   25 1    
    48   25   26 1    
    49   25   27 1    
    50   25   87 1    
    51   26   88 1    
    52   26   89 1    
    53   26   90 1    
    54   27   28 am   BACKBONE|DICT|INTERRES
    55   27   91 1    
    56   28   29 2    
    57   28   30 1    
    58   30   31 1    
    59   30   32 1    
    60   30   92 1    
    61   31   93 1    
    62   31   94 1    
    63   31   95 1    
    64   32   33 am   BACKBONE|DICT|INTERRES
    65   32   96 1    
    66   33   34 2    
    67   33   35 1    
    68   35   36 1    
    69   35   37 1    
    70   35   97 1    
    71   36   98 1    
    72   36   99 1    
    73   36  100 1    
    74   37   38 am   BACKBONE|DICT|INTERRES
    75   37  101 1    
    76   38   39 2    
    77   38   40 1    
    78   40   41 1    
    79   40   42 1    
    80   40  102 1    
    81   41  103 1    
    82   41  104 1    
    83   41  105 1    
    84   42   43 am   BACKBONE|DICT|INTERRES
    85   42  106 1    
    86   43   44 2    
    87   43   45 1    
    88   45   46 1    
    89   45   49 1    
    90   45  107 1    
    91   46   47 1    
    92   46  108 1    
    93   46  109 1    
    94   47   48 1    
    95   48  110 1    
    96   48  111 1    
    97   49   50 am   BACKBONE|DICT|INTERRES
    98   49  112 1    
    99   50   51 2    
   100   50   52 1    
   101   52   53 1    
   102   52   54 1    
   103   52  113 1    
   104   53  114 1    
   105   53  115 1    
   106   53  116 1    
   107   54   55 am   BACKBONE|DICT|INTERRES
   108   54  117 1    
   109   55   56 2    
   110   55   57 1    
   111   57   58 1    
   112   57   59 1    
   113   57  118 1    
   114   58  119 1    
   115   58  120 1    
   116   58  121 1    
   117   59   60 am   BACKBONE|DICT|INTERRES
   118   59  122 1    
   119   60   61 2    
   120   60   62 1    
   121   62   63 1    
   122   62   64 1    
   123   62  123 1    
   124   63  124 1    
   125   63  125 1    
   126   63  126 1    
   127   64   65 am   BACKBONE|DICT|INTERRES
   128   64  127 1    
   129   65   66 2    
@<TRIPOS>SUBSTRUCTURE
     1 UNK         1 GROUP             0       ****    0 ROOT    
