@<TRIPOS>MOLECULE
3R135
127   129    1
SMALL
USER_CHARGES


@<TRIPOS>ATOM
      1 CA        -82.2416   23.3765  -71.0891 C.3       0 UNK        -0.1998 
      2 C         -80.8833   23.6665  -70.4534 C.2       0 UNK         0.4909 
      3 O         -80.4533   22.9076  -69.5863 O.2       0 UNK        -0.5240 
      4 N         -80.1778   24.7455  -70.8236 N.am      1 UNK        -0.4739 
      5 CA        -80.5050   25.7261  -71.8706 C.3       1 UNK         0.0864 
      6 C6        -79.5709   26.9651  -71.8146 C.3       11 UNK        -0.0881 
      7 S7        -79.3953   27.6656  -70.1337 S.3       11 UNK        -0.2682 
      8 C8        -80.0340   29.3571  -70.3320 C.3       11 UNK         0.0289 
      9 C9        -79.1396   30.1934  -71.2346 C.ar      11 UNK        -0.0687 
     10 C10       -79.5507   30.5041  -72.5330 C.ar      11 UNK        -0.0823 
     11 C11       -78.7301   31.2578  -73.3753 C.ar      11 UNK        -0.0830 
     12 C12       -77.5023   31.7268  -72.9010 C.ar      11 UNK        -0.1021 
     13 C13       -77.0777   31.4203  -71.6047 C.ar      11 UNK        -0.0753 
     14 C14       -77.9017   30.6540  -70.7743 C.ar      11 UNK        -0.0933 
     15 C15       -75.7328   31.9272  -71.1045 C.3       11 UNK         0.0166 
     16 S16       -74.3415   31.1955  -72.0229 S.3       11 UNK        -0.2615 
     17 C17       -74.3782   29.4670  -71.4380 C.3       11 UNK        -0.0865 
     18 CA        -73.0819   28.6989  -71.8166 C.3       10 UNK         0.0862 
     19 C         -72.9902   27.3409  -71.0712 C.2       10 UNK         0.5551 
     20 N         -72.7173   27.3721  -69.7737 N.am      10 UNK        -0.7319 
     21 O         -73.1720   26.2650  -71.6365 O.2       10 UNK        -0.5018 
     22 N         -72.9824   28.5148  -73.2704 N.am      10 UNK        -0.4509 
     23 C         -72.1105   29.1201  -74.0836 C.2       10 UNK         0.4899 
     24 O         -71.2436   29.9087  -73.7011 O.2       10 UNK        -0.4839 
     25 CA        -72.2456   28.7931  -75.5848 C.3       9 UNK         0.0222 
     26 CB        -71.1098   29.3891  -76.4442 C.3       9 UNK        -0.1966 
     27 N         -72.4026   27.3580  -75.8489 N.am      9 UNK        -0.4218 
     28 C         -71.5380   26.3773  -75.5463 C.2       9 UNK         0.5020 
     29 O         -70.4427   26.5600  -75.0126 O.2       9 UNK        -0.5274 
     30 CA        -71.9566   24.9373  -75.8954 C.3       8 UNK         0.0270 
     31 CB        -72.4544   24.2044  -74.6399 C.3       8 UNK        -0.1976 
     32 N         -72.9553   24.8488  -76.9723 N.am      8 UNK        -0.4313 
     33 C         -72.6409   25.0126  -78.2670 C.2       8 UNK         0.5041 
     34 O         -71.5194   25.3359  -78.6609 O.2       8 UNK        -0.5577 
     35 CA        -73.7405   24.7541  -79.3026 C.3       7 UNK         0.0284 
     36 CB        -74.0489   23.2500  -79.4116 C.3       7 UNK        -0.1958 
     37 N         -74.9655   25.4908  -78.9890 N.am      7 UNK        -0.4454 
     38 C         -75.3944   26.5573  -79.6758 C.2       7 UNK         0.5089 
     39 O         -74.7711   27.0734  -80.6047 O.2       7 UNK        -0.5125 
     40 CA        -76.7665   27.1381  -79.2962 C.3       6 UNK         0.0408 
     41 CB        -77.8946   26.3365  -79.9640 C.3       6 UNK        -0.1791 
     42 N         -77.0227   27.2334  -77.8585 N.am      6 UNK        -0.4762 
     43 C         -76.3681   28.0507  -77.0204 C.2       6 UNK         0.5007 
     44 O         -75.3515   28.6758  -77.3211 O.2       6 UNK        -0.5032 
     45 CA        -76.9690   28.1965  -75.6086 C.3       5 UNK         0.0783 
     46 C46       -78.3234   28.9523  -75.6397 C.3       11 UNK        -0.0857 
     47 S47       -78.1120   30.7258  -76.0330 S.3       11 UNK        -0.2512 
     48 C48       -79.1687   31.5535  -74.8013 C.3       11 UNK         0.0225 
     49 N         -77.0864   26.8717  -74.9968 N.am      5 UNK        -0.4615 
     50 C         -76.0545   26.2294  -74.4326 C.2       4 UNK         0.5053 
     51 O         -74.9650   26.7607  -74.2335 O.2       4 UNK        -0.5105 
     52 CA        -76.2280   24.7366  -74.0913 C.3       4 UNK         0.0263 
     53 CB        -76.4947   24.5069  -72.5964 C.3       4 UNK        -0.1981 
     54 N         -77.2462   24.0741  -74.9077 N.am      4 UNK        -0.4224 
     55 C         -77.0833   23.8308  -76.2169 C.2       3 UNK         0.4895 
     56 O         -76.0401   24.0795  -76.8230 O.2       3 UNK        -0.5091 
     57 CA        -78.2860   23.2723  -76.9982 C.3       3 UNK         0.0250 
     58 CB        -78.2237   21.7383  -77.0473 C.3       3 UNK        -0.1996 
     59 N         -79.5877   23.6927  -76.4701 N.am      3 UNK        -0.4254 
     60 C         -80.0008   24.9614  -76.3341 C.2       2 UNK         0.5004 
     61 O         -79.3345   25.9352  -76.6869 O.2       2 UNK        -0.5226 
     62 CA        -81.3497   25.1947  -75.6250 C.3       2 UNK         0.0269 
     63 CB        -82.2862   23.9650  -75.6545 C.3       2 UNK        -0.1926 
     64 N         -81.1814   25.6681  -74.2407 N.am      2 UNK        -0.4687 
     65 C         -80.4601   25.0791  -73.2737 C.2       1 UNK         0.5165 
     66 O         -79.7741   24.0692  -73.4544 O.2       1 UNK        -0.5079 
     67 H67       -82.1159   22.9428  -72.0807 H         1 UNK         0.0900 
     68 H68       -82.7966   22.6605  -70.4833 H         1 UNK         0.0900 
     69 H69       -82.8533   24.2737  -71.1695 H         1 UNK         0.0900 
     70 H70       -79.2935   24.9097  -70.3654 H         1 UNK         0.2959 
     71 H71       -81.5238   26.0738  -71.6910 H         1 UNK         0.1079 
     72 H72       -78.5682   26.7306  -72.1708 H         1 UNK         0.0837 
     73 H73       -79.9435   27.7337  -72.4917 H         1 UNK         0.0837 
     74 H74       -81.0544   29.3164  -70.7164 H         1 UNK         0.0685 
     75 H75       -80.0956   29.8282  -69.3500 H         1 UNK         0.0685 
     76 H76       -80.5054   30.1463  -72.8934 H         1 UNK         0.1434 
     77 H77       -76.8645   32.3118  -73.5499 H         1 UNK         0.1329 
     78 H78       -77.5814   30.4093  -69.7708 H         1 UNK         0.1335 
     79 H79       -75.6984   33.0111  -71.2221 H         1 UNK         0.0680 
     80 H80       -75.6081   31.7309  -70.0384 H         1 UNK         0.0680 
     81 H81       -74.5179   29.4820  -70.3556 H         1 UNK         0.1032 
     82 H82       -75.2568   28.9685  -71.8532 H         1 UNK         0.1032 
     83 H83       -72.2268   29.2830  -71.4709 H         1 UNK         0.0461 
     84 H84       -72.5554   28.2429  -69.2925 H         1 UNK         0.3453 
     85 H85       -72.6567   26.5022  -69.2681 H         1 UNK         0.3453 
     86 H86       -73.6286   27.8266  -73.6563 H         1 UNK         0.2984 
     87 H87       -73.1749   29.2636  -75.9064 H         1 UNK         0.0554 
     88 H88       -71.0730   30.4744  -76.3435 H         1 UNK         0.0847 
     89 H89       -71.2554   29.1673  -77.5014 H         1 UNK         0.0847 
     90 H90       -70.1331   29.0028  -76.1513 H         1 UNK         0.0847 
     91 H91       -73.2915   27.0867  -76.2457 H         1 UNK         0.3141 
     92 H92       -71.0599   24.4150  -76.2370 H         1 UNK         0.0743 
     93 H93       -73.1634   24.8077  -74.0754 H         1 UNK         0.0784 
     94 H94       -72.9207   23.2485  -74.8790 H         1 UNK         0.0784 
     95 H95       -71.6218   23.9997  -73.9658 H         1 UNK         0.0784 
     96 H96       -73.8983   24.5696  -76.7266 H         1 UNK         0.3213 
     97 H97       -73.3490   25.0691  -80.2725 H         1 UNK         0.0855 
     98 H98       -74.4206   22.8337  -78.4753 H         1 UNK         0.0814 
     99 H99       -73.1531   22.6893  -79.6816 H         1 UNK         0.0814 
    100 H100      -74.7957   23.0558  -80.1815 H         1 UNK         0.0814 
    101 H101      -75.5270   25.1294  -78.2204 H         1 UNK         0.3105 
    102 H102      -76.8071   28.1546  -79.6938 H         1 UNK         0.0547 
    103 H103      -77.7659   26.3112  -81.0470 H         1 UNK         0.0837 
    104 H104      -77.9178   25.3043  -79.6166 H         1 UNK         0.0837 
    105 H105      -78.8705   26.7794  -79.7646 H         1 UNK         0.0837 
    106 H106      -77.8470   26.7491  -77.5091 H         1 UNK         0.3020 
    107 H107      -76.2727   28.7916  -75.0114 H         1 UNK         0.1245 
    108 H108      -78.8130   28.8521  -74.6718 H         1 UNK         0.0781 
    109 H109      -79.0153   28.5178  -76.3625 H         1 UNK         0.0781 
    110 H110      -80.2051   31.2537  -74.9643 H         1 UNK         0.0836 
    111 H111      -79.1321   32.6305  -74.9707 H         1 UNK         0.0836 
    112 H112      -77.9293   26.3556  -75.2162 H         1 UNK         0.3022 
    113 H113      -75.2799   24.2509  -74.3169 H         1 UNK         0.0747 
    114 H114      -76.3860   23.4533  -72.3395 H         1 UNK         0.0793 
    115 H115      -75.7853   25.0631  -71.9814 H         1 UNK         0.0793 
    116 H116      -77.4952   24.8108  -72.3025 H         1 UNK         0.0793 
    117 H117      -78.1412   23.8753  -74.4664 H         1 UNK         0.3047 
    118 H118      -78.2108   23.6470  -78.0196 H         1 UNK         0.0822 
    119 H119      -79.0119   21.3284  -77.6791 H         1 UNK         0.0807 
    120 H120      -78.3240   21.2979  -76.0544 H         1 UNK         0.0807 
    121 H121      -77.2719   21.3998  -77.4599 H         1 UNK         0.0807 
    122 H122      -80.1846   22.9627  -76.1091 H         1 UNK         0.2946 
    123 H123      -81.8410   25.9969  -76.1786 H         1 UNK         0.1144 
    124 H124      -83.2736   24.2208  -75.2698 H         1 UNK         0.0793 
    125 H125      -81.9086   23.1371  -75.0533 H         1 UNK         0.0793 
    126 H126      -82.4281   23.6005  -76.6730 H         1 UNK         0.0793 
    127 H127      -81.6839   26.5161  -74.0164 H         1 UNK         0.2896 
@<TRIPOS>BOND
     1    1    2 1    
     2    1   67 1    
     3    1   68 1    
     4    1   69 1    
     5    2    3 2    
     6    2    4 am   BACKBONE|DICT|INTERRES
     7    4    5 1    
     8    4   70 1    
     9    5    6 1    
    10    5   65 1    
    11    5   71 1    
    12    6    7 1    
    13    6   72 1    
    14    6   73 1    
    15    7    8 1    
    16    8    9 1    
    17    8   74 1    
    18    8   75 1    
    19    9   10 ar   
    20    9   14 ar   
    21   10   11 ar   
    22   10   76 1    
    23   11   12 ar   
    24   11   48 1    
    25   12   13 ar   
    26   12   77 1    
    27   13   14 ar   
    28   13   15 1    
    29   14   78 1    
    30   15   16 1    
    31   15   79 1    
    32   15   80 1    
    33   16   17 1    
    34   17   18 1    
    35   17   81 1    
    36   17   82 1    
    37   18   19 1    
    38   18   22 1    
    39   18   83 1    
    40   19   20 am   BACKBONE|DICT|INTERRES
    41   19   21 2    
    42   20   84 1    
    43   20   85 1    
    44   22   23 am   BACKBONE|DICT|INTERRES
    45   22   86 1    
    46   23   24 2    
    47   23   25 1    
    48   25   26 1    
    49   25   27 1    
    50   25   87 1    
    51   26   88 1    
    52   26   89 1    
    53   26   90 1    
    54   27   28 am   BACKBONE|DICT|INTERRES
    55   27   91 1    
    56   28   29 2    
    57   28   30 1    
    58   30   31 1    
    59   30   32 1    
    60   30   92 1    
    61   31   93 1    
    62   31   94 1    
    63   31   95 1    
    64   32   33 am   BACKBONE|DICT|INTERRES
    65   32   96 1    
    66   33   34 2    
    67   33   35 1    
    68   35   36 1    
    69   35   37 1    
    70   35   97 1    
    71   36   98 1    
    72   36   99 1    
    73   36  100 1    
    74   37   38 am   BACKBONE|DICT|INTERRES
    75   37  101 1    
    76   38   39 2    
    77   38   40 1    
    78   40   41 1    
    79   40   42 1    
    80   40  102 1    
    81   41  103 1    
    82   41  104 1    
    83   41  105 1    
    84   42   43 am   BACKBONE|DICT|INTERRES
    85   42  106 1    
    86   43   44 2    
    87   43   45 1    
    88   45   46 1    
    89   45   49 1    
    90   45  107 1    
    91   46   47 1    
    92   46  108 1    
    93   46  109 1    
    94   47   48 1    
    95   48  110 1    
    96   48  111 1    
    97   49   50 am   BACKBONE|DICT|INTERRES
    98   49  112 1    
    99   50   51 2    
   100   50   52 1    
   101   52   53 1    
   102   52   54 1    
   103   52  113 1    
   104   53  114 1    
   105   53  115 1    
   106   53  116 1    
   107   54   55 am   BACKBONE|DICT|INTERRES
   108   54  117 1    
   109   55   56 2    
   110   55   57 1    
   111   57   58 1    
   112   57   59 1    
   113   57  118 1    
   114   58  119 1    
   115   58  120 1    
   116   58  121 1    
   117   59   60 am   BACKBONE|DICT|INTERRES
   118   59  122 1    
   119   60   61 2    
   120   60   62 1    
   121   62   63 1    
   122   62   64 1    
   123   62  123 1    
   124   63  124 1    
   125   63  125 1    
   126   63  126 1    
   127   64   65 am   BACKBONE|DICT|INTERRES
   128   64  127 1    
   129   65   66 2    
@<TRIPOS>SUBSTRUCTURE
     1 UNK         1 GROUP             0       ****    0 ROOT    
