@<TRIPOS>MOLECULE
3R135
127   129    1
SMALL
USER_CHARGES


@<TRIPOS>ATOM
      1 CA        -76.3344   27.4068  -71.8169 C.3       0 UNK        -0.1998 
      2 C         -77.2443   26.5657  -70.9379 C.2       0 UNK         0.4909 
      3 O         -76.7775   25.6211  -70.3010 O.2       0 UNK        -0.5240 
      4 N         -78.5383   26.9068  -70.8927 N.am      1 UNK        -0.4739 
      5 CA        -79.5511   26.2181  -70.0811 C.3       1 UNK         0.0864 
      6 C6        -80.8143   27.0835  -69.8352 C.3       11 UNK        -0.0881 
      7 S7        -80.4367   28.7741  -69.2463 S.3       11 UNK        -0.2682 
      8 C8        -81.1359   29.8161  -70.5699 C.3       11 UNK         0.0289 
      9 C9        -80.2501   29.8690  -71.8089 C.ar      11 UNK        -0.0687 
     10 C10       -80.3589   28.8844  -72.7941 C.ar      11 UNK        -0.0823 
     11 C11       -79.5647   28.9352  -73.9404 C.ar      11 UNK        -0.0830 
     12 C12       -78.6881   30.0065  -74.1258 C.ar      11 UNK        -0.1021 
     13 C13       -78.5722   31.0083  -73.1551 C.ar      11 UNK        -0.0753 
     14 C14       -79.3493   30.9246  -71.9931 C.ar      11 UNK        -0.0933 
     15 C15       -77.6658   32.2180  -73.3771 C.3       11 UNK         0.0166 
     16 S16       -76.0534   31.8161  -74.1327 S.3       11 UNK        -0.2615 
     17 C17       -75.1783   31.0394  -72.7345 C.3       11 UNK        -0.0865 
     18 CA        -73.6362   31.0988  -72.9000 C.3       10 UNK         0.0862 
     19 C         -72.9036   30.6464  -71.6005 C.2       10 UNK         0.5551 
     20 N         -71.9587   29.7142  -71.6428 N.am      10 UNK        -0.7319 
     21 O         -73.1947   31.1623  -70.5243 O.2       10 UNK        -0.5018 
     22 N         -73.1985   30.3955  -74.1174 N.am      10 UNK        -0.4509 
     23 C         -72.0950   30.6816  -74.8182 C.2       10 UNK         0.4899 
     24 O         -71.3450   31.6257  -74.5636 O.2       10 UNK        -0.4839 
     25 CA        -71.7763   29.7271  -75.9876 C.3       9 UNK         0.0222 
     26 CB        -70.3594   29.9312  -76.5635 C.3       9 UNK        -0.1966 
     27 N         -71.9923   28.3137  -75.6490 N.am      9 UNK        -0.4218 
     28 C         -71.4312   27.6237  -74.6424 C.2       9 UNK         0.5020 
     29 O         -70.6536   28.1095  -73.8204 O.2       9 UNK        -0.5274 
     30 CA        -71.8219   26.1446  -74.5125 C.3       8 UNK         0.0270 
     31 CB        -73.1156   26.0007  -73.6925 C.3       8 UNK        -0.1976 
     32 N         -71.9914   25.5046  -75.8188 N.am      8 UNK        -0.4313 
     33 C         -70.9932   24.9883  -76.5493 C.2       8 UNK         0.5041 
     34 O         -69.8173   24.9689  -76.1832 O.2       8 UNK        -0.5577 
     35 CA        -71.3617   24.3688  -77.9108 C.3       7 UNK         0.0284 
     36 CB        -71.5317   22.8466  -77.7765 C.3       7 UNK        -0.1958 
     37 N         -72.5804   24.9383  -78.4917 N.am      7 UNK        -0.4454 
     38 C         -72.6423   26.1284  -79.1049 C.2       7 UNK         0.5089 
     39 O         -71.6658   26.8513  -79.3024 O.2       7 UNK        -0.5125 
     40 CA        -74.0399   26.6076  -79.5428 C.3       6 UNK         0.0408 
     41 CB        -74.3503   26.1278  -80.9695 C.3       6 UNK        -0.1791 
     42 N         -75.1271   26.1998  -78.6414 N.am      6 UNK        -0.4762 
     43 C         -75.2083   26.5208  -77.3408 C.2       6 UNK         0.5007 
     44 O         -74.3321   27.1557  -76.7526 O.2       6 UNK        -0.5032 
     45 CA        -76.4385   26.0404  -76.5498 C.3       5 UNK         0.0783 
     46 C46       -76.9723   27.1484  -75.6047 C.3       11 UNK        -0.0857 
     47 S47       -78.3841   26.5597  -74.6090 S.3       11 UNK        -0.2512 
     48 C48       -79.6476   27.8168  -74.9632 C.3       11 UNK         0.0225 
     49 N         -77.4925   25.5126  -77.4286 N.am      5 UNK        -0.4615 
     50 C         -77.9930   24.2772  -77.3253 C.2       4 UNK         0.5053 
     51 O         -77.4954   23.3807  -76.6397 O.2       4 UNK        -0.5105 
     52 CA        -79.2971   23.9968  -78.0740 C.3       4 UNK         0.0263 
     53 CB        -79.0635   23.1101  -79.3086 C.3       4 UNK        -0.1981 
     54 N         -80.1766   23.3240  -77.1248 N.am      4 UNK        -0.4224 
     55 C         -81.5041   23.4643  -77.0427 C.2       3 UNK         0.4895 
     56 O         -82.1785   24.1030  -77.8515 O.2       3 UNK        -0.5091 
     57 CA        -82.2022   22.7831  -75.8496 C.3       3 UNK         0.0250 
     58 CB        -82.6872   21.3779  -76.2424 C.3       3 UNK        -0.1996 
     59 N         -81.3538   22.6884  -74.6545 N.am      3 UNK        -0.4254 
     60 C         -81.0020   23.7326  -73.8901 C.2       2 UNK         0.5004 
     61 O         -81.4089   24.8815  -74.0790 O.2       2 UNK        -0.5226 
     62 CA        -80.0386   23.4344  -72.7284 C.3       2 UNK         0.0269 
     63 CB        -78.7015   22.8667  -73.2417 C.3       2 UNK        -0.1926 
     64 N         -79.7541   24.6585  -71.9786 N.am      2 UNK        -0.4687 
     65 C         -79.9392   24.8402  -70.6646 C.2       1 UNK         0.5165 
     66 O         -80.3901   23.9740  -69.9131 O.2       1 UNK        -0.5079 
     67 H67       -75.5874   27.9161  -71.2088 H         1 UNK         0.0900 
     68 H68       -76.8987   28.1547  -72.3735 H         1 UNK         0.0900 
     69 H69       -75.8188   26.7684  -72.5326 H         1 UNK         0.0900 
     70 H70       -78.8646   27.7094  -71.4144 H         1 UNK         0.2959 
     71 H71       -79.1011   26.0218  -69.1050 H         1 UNK         0.1079 
     72 H72       -81.4382   27.1302  -70.7272 H         1 UNK         0.0837 
     73 H73       -81.4389   26.6087  -69.0760 H         1 UNK         0.0837 
     74 H74       -82.1333   29.4599  -70.8324 H         1 UNK         0.0685 
     75 H75       -81.2751   30.8237  -70.1754 H         1 UNK         0.0685 
     76 H76       -81.0594   28.0703  -72.6754 H         1 UNK         0.1434 
     77 H77       -78.0943   30.0580  -75.0275 H         1 UNK         0.1329 
     78 H78       -79.2749   31.6983  -71.2410 H         1 UNK         0.1335 
     79 H79       -77.4963   32.7539  -72.4419 H         1 UNK         0.0680 
     80 H80       -78.1872   32.9132  -74.0361 H         1 UNK         0.0680 
     81 H81       -75.5147   30.0082  -72.6420 H         1 UNK         0.1032 
     82 H82       -75.4843   31.5448  -71.8164 H         1 UNK         0.1032 
     83 H83       -73.3732   32.1520  -73.0168 H         1 UNK         0.0461 
     84 H84       -71.5003   29.4477  -70.7864 H         1 UNK         0.3453 
     85 H85       -71.6576   29.3021  -72.5183 H         1 UNK         0.3453 
     86 H86       -73.7557   29.6033  -74.3994 H         1 UNK         0.2984 
     87 H87       -72.4910   29.9630  -76.7774 H         1 UNK         0.0554 
     88 H88       -70.1755   29.2636  -77.4056 H         1 UNK         0.0847 
     89 H89       -69.5883   29.7467  -75.8146 H         1 UNK         0.0847 
     90 H90       -70.2257   30.9516  -76.9245 H         1 UNK         0.0847 
     91 H91       -72.6989   27.8379  -76.2068 H         1 UNK         0.3141 
     92 H92       -71.0226   25.6357  -73.9690 H         1 UNK         0.0743 
     93 H93       -73.9601   26.4938  -74.1731 H         1 UNK         0.0784 
     94 H94       -73.3780   24.9528  -73.5459 H         1 UNK         0.0784 
     95 H95       -73.0002   26.4460  -72.7031 H         1 UNK         0.0784 
     96 H96       -72.9154   25.5400  -76.2248 H         1 UNK         0.3213 
     97 H97       -70.5295   24.5583  -78.5928 H         1 UNK         0.0855 
     98 H98       -72.3544   22.5871  -77.1089 H         1 UNK         0.0814 
     99 H99       -70.6280   22.3882  -77.3721 H         1 UNK         0.0814 
    100 H100      -71.7228   22.3813  -78.7437 H         1 UNK         0.0814 
    101 H101      -73.4324   24.4048  -78.3957 H         1 UNK         0.3105 
    102 H102      -74.0184   27.6995  -79.5507 H         1 UNK         0.0547 
    103 H103      -73.5679   26.4374  -81.6640 H         1 UNK         0.0837 
    104 H104      -74.4228   25.0409  -81.0251 H         1 UNK         0.0837 
    105 H105      -75.2877   26.5470  -81.3352 H         1 UNK         0.0837 
    106 H106      -75.8770   25.6563  -79.0446 H         1 UNK         0.3020 
    107 H107      -76.0557   25.2405  -75.9117 H         1 UNK         0.1245 
    108 H108      -76.1967   27.4800  -74.9127 H         1 UNK         0.0781 
    109 H109      -77.2578   28.0309  -76.1788 H         1 UNK         0.0781 
    110 H110      -79.5420   28.2049  -75.9770 H         1 UNK         0.0836 
    111 H111      -80.6306   27.3452  -74.9251 H         1 UNK         0.0836 
    112 H112      -77.9593   26.1881  -78.0174 H         1 UNK         0.3022 
    113 H113      -79.7449   24.9436  -78.3841 H         1 UNK         0.0747 
    114 H114      -79.9993   22.9010  -79.8271 H         1 UNK         0.0793 
    115 H115      -78.3991   23.6002  -80.0213 H         1 UNK         0.0793 
    116 H116      -78.6099   22.1552  -79.0395 H         1 UNK         0.0793 
    117 H117      -79.6892   22.8130  -76.4001 H         1 UNK         0.3047 
    118 H118      -83.0772   23.3861  -75.5966 H         1 UNK         0.0822 
    119 H119      -83.2551   20.9136  -75.4358 H         1 UNK         0.0807 
    120 H120      -81.8562   20.7174  -76.4933 H         1 UNK         0.0807 
    121 H121      -83.3426   21.4215  -77.1135 H         1 UNK         0.0807 
    122 H122      -80.9984   21.7714  -74.4240 H         1 UNK         0.2946 
    123 H123      -80.5199   22.6947  -72.0847 H         1 UNK         0.1144 
    124 H124      -78.8362   21.9137  -73.7538 H         1 UNK         0.0793 
    125 H125      -78.0082   22.6903  -72.4190 H         1 UNK         0.0793 
    126 H126      -78.2160   23.5485  -73.9411 H         1 UNK         0.0793 
    127 H127      -79.4357   25.4416  -72.5348 H         1 UNK         0.2896 
@<TRIPOS>BOND
     1    1    2 1    
     2    1   67 1    
     3    1   68 1    
     4    1   69 1    
     5    2    3 2    
     6    2    4 am   BACKBONE|DICT|INTERRES
     7    4    5 1    
     8    4   70 1    
     9    5    6 1    
    10    5   65 1    
    11    5   71 1    
    12    6    7 1    
    13    6   72 1    
    14    6   73 1    
    15    7    8 1    
    16    8    9 1    
    17    8   74 1    
    18    8   75 1    
    19    9   10 ar   
    20    9   14 ar   
    21   10   11 ar   
    22   10   76 1    
    23   11   12 ar   
    24   11   48 1    
    25   12   13 ar   
    26   12   77 1    
    27   13   14 ar   
    28   13   15 1    
    29   14   78 1    
    30   15   16 1    
    31   15   79 1    
    32   15   80 1    
    33   16   17 1    
    34   17   18 1    
    35   17   81 1    
    36   17   82 1    
    37   18   19 1    
    38   18   22 1    
    39   18   83 1    
    40   19   20 am   BACKBONE|DICT|INTERRES
    41   19   21 2    
    42   20   84 1    
    43   20   85 1    
    44   22   23 am   BACKBONE|DICT|INTERRES
    45   22   86 1    
    46   23   24 2    
    47   23   25 1    
    48   25   26 1    
    49   25   27 1    
    50   25   87 1    
    51   26   88 1    
    52   26   89 1    
    53   26   90 1    
    54   27   28 am   BACKBONE|DICT|INTERRES
    55   27   91 1    
    56   28   29 2    
    57   28   30 1    
    58   30   31 1    
    59   30   32 1    
    60   30   92 1    
    61   31   93 1    
    62   31   94 1    
    63   31   95 1    
    64   32   33 am   BACKBONE|DICT|INTERRES
    65   32   96 1    
    66   33   34 2    
    67   33   35 1    
    68   35   36 1    
    69   35   37 1    
    70   35   97 1    
    71   36   98 1    
    72   36   99 1    
    73   36  100 1    
    74   37   38 am   BACKBONE|DICT|INTERRES
    75   37  101 1    
    76   38   39 2    
    77   38   40 1    
    78   40   41 1    
    79   40   42 1    
    80   40  102 1    
    81   41  103 1    
    82   41  104 1    
    83   41  105 1    
    84   42   43 am   BACKBONE|DICT|INTERRES
    85   42  106 1    
    86   43   44 2    
    87   43   45 1    
    88   45   46 1    
    89   45   49 1    
    90   45  107 1    
    91   46   47 1    
    92   46  108 1    
    93   46  109 1    
    94   47   48 1    
    95   48  110 1    
    96   48  111 1    
    97   49   50 am   BACKBONE|DICT|INTERRES
    98   49  112 1    
    99   50   51 2    
   100   50   52 1    
   101   52   53 1    
   102   52   54 1    
   103   52  113 1    
   104   53  114 1    
   105   53  115 1    
   106   53  116 1    
   107   54   55 am   BACKBONE|DICT|INTERRES
   108   54  117 1    
   109   55   56 2    
   110   55   57 1    
   111   57   58 1    
   112   57   59 1    
   113   57  118 1    
   114   58  119 1    
   115   58  120 1    
   116   58  121 1    
   117   59   60 am   BACKBONE|DICT|INTERRES
   118   59  122 1    
   119   60   61 2    
   120   60   62 1    
   121   62   63 1    
   122   62   64 1    
   123   62  123 1    
   124   63  124 1    
   125   63  125 1    
   126   63  126 1    
   127   64   65 am   BACKBONE|DICT|INTERRES
   128   64  127 1    
   129   65   66 2    
@<TRIPOS>SUBSTRUCTURE
     1 UNK         1 GROUP             0       ****    0 ROOT    
