@<TRIPOS>MOLECULE
3R135
127   129    1
SMALL
USER_CHARGES


@<TRIPOS>ATOM
      1 CA        -83.0647   26.1368  -73.6191 C.3       0 UNK        -0.1998 
      2 C         -81.5710   25.8810  -73.4889 C.2       0 UNK         0.4909 
      3 O         -80.9128   25.5983  -74.4883 O.2       0 UNK        -0.5240 
      4 N         -81.0335   25.9874  -72.2667 N.am      1 UNK        -0.4739 
      5 CA        -79.6225   25.7554  -71.9466 C.3       1 UNK         0.0864 
      6 C6        -79.2972   26.2356  -70.5108 C.3       11 UNK        -0.0881 
      7 S7        -77.5141   26.5245  -70.2583 S.3       11 UNK        -0.2682 
      8 C8        -77.4606   28.3308  -70.0493 C.3       11 UNK         0.0289 
      9 C9        -77.5614   29.0614  -71.3798 C.ar      11 UNK        -0.0687 
     10 C10       -78.7946   29.5151  -71.8572 C.ar      11 UNK        -0.0823 
     11 C11       -78.8718   30.2207  -73.0619 C.ar      11 UNK        -0.0830 
     12 C12       -77.6986   30.4957  -73.7733 C.ar      11 UNK        -0.1021 
     13 C13       -76.4653   30.0140  -73.3271 C.ar      11 UNK        -0.0753 
     14 C14       -76.4066   29.2967  -72.1288 C.ar      11 UNK        -0.0933 
     15 C15       -75.2140   30.2266  -74.1691 C.3       11 UNK         0.0166 
     16 S16       -74.3134   31.7505  -73.7340 S.3       11 UNK        -0.2615 
     17 C17       -73.4051   31.2572  -72.2257 C.3       11 UNK        -0.0865 
     18 CA        -71.9440   30.7980  -72.4833 C.3       10 UNK         0.0862 
     19 C         -71.2610   30.4058  -71.1388 C.2       10 UNK         0.5551 
     20 N         -70.9723   29.1336  -70.8842 N.am      10 UNK        -0.7319 
     21 O         -70.9921   31.2750  -70.3135 O.2       10 UNK        -0.5018 
     22 N         -71.8644   29.7582  -73.5209 N.am      10 UNK        -0.4509 
     23 C         -70.7439   29.3686  -74.1400 C.2       10 UNK         0.4899 
     24 O         -69.6544   29.9228  -73.9859 O.2       10 UNK        -0.4839 
     25 CA        -70.8573   28.1623  -75.0959 C.3       9 UNK         0.0222 
     26 CB        -69.5675   27.3151  -75.1170 C.3       9 UNK        -0.1966 
     27 N         -72.0293   27.2994  -74.8750 N.am      9 UNK        -0.4218 
     28 C         -72.3467   26.6135  -73.7621 C.2       9 UNK         0.5020 
     29 O         -71.7174   26.7076  -72.7066 O.2       9 UNK        -0.5274 
     30 CA        -73.5837   25.6885  -73.8069 C.3       8 UNK         0.0270 
     31 CB        -74.7035   26.2207  -72.8981 C.3       8 UNK        -0.1976 
     32 N         -74.1329   25.4890  -75.1502 N.am      8 UNK        -0.4313 
     33 C         -73.5740   24.7447  -76.1135 C.2       8 UNK         0.5041 
     34 O         -72.5671   24.0556  -75.9515 O.2       8 UNK        -0.5577 
     35 CA        -74.2352   24.8060  -77.5033 C.3       7 UNK         0.0284 
     36 CB        -75.1970   23.6219  -77.6919 C.3       7 UNK        -0.1958 
     37 N         -74.9584   26.0555  -77.7758 N.am      7 UNK        -0.4454 
     38 C         -74.4161   27.2840  -77.8058 C.2       7 UNK         0.5089 
     39 O         -73.2363   27.5182  -77.5484 O.2       7 UNK        -0.5125 
     40 CA        -75.3644   28.4472  -78.1171 C.3       6 UNK         0.0408 
     41 CB        -75.5890   28.5665  -79.6371 C.3       6 UNK        -0.1791 
     42 N         -76.6242   28.2558  -77.4007 N.am      6 UNK        -0.4762 
     43 C         -77.6265   29.1291  -77.2691 C.2       6 UNK         0.5007 
     44 O         -77.6215   30.2507  -77.7783 O.2       6 UNK        -0.5032 
     45 CA        -78.8348   28.6462  -76.4285 C.3       5 UNK         0.0783 
     46 C46       -79.9145   29.7486  -76.2439 C.3       11 UNK        -0.0857 
     47 S47       -80.9371   29.4670  -74.7602 S.3       11 UNK        -0.2512 
     48 C48       -80.2238   30.6776  -73.5938 C.3       11 UNK         0.0225 
     49 N         -79.4135   27.4151  -76.9849 N.am      5 UNK        -0.4615 
     50 C         -78.8714   26.1923  -76.9295 C.2       4 UNK         0.5053 
     51 O         -77.8060   25.9345  -76.3535 O.2       4 UNK        -0.5105 
     52 CA        -79.5912   25.0945  -77.7208 C.3       4 UNK         0.0263 
     53 CB        -79.3471   25.2730  -79.2334 C.3       4 UNK        -0.1981 
     54 N         -79.0713   23.8103  -77.2703 N.am      4 UNK        -0.4224 
     55 C         -79.5693   22.5953  -77.5271 C.2       3 UNK         0.4895 
     56 O         -80.5524   22.3888  -78.2396 O.2       3 UNK        -0.5091 
     57 CA        -78.8471   21.4004  -76.8728 C.3       3 UNK         0.0250 
     58 CB        -77.8715   20.7489  -77.8666 C.3       3 UNK        -0.1996 
     59 N         -78.1225   21.7718  -75.6513 N.am      3 UNK        -0.4254 
     60 C         -78.7198   22.1012  -74.4969 C.2       2 UNK         0.5004 
     61 O         -79.9347   22.0003  -74.3200 O.2       2 UNK        -0.5226 
     62 CA        -77.8282   22.6440  -73.3613 C.3       2 UNK         0.0269 
     63 CB        -76.3221   22.6850  -73.6986 C.3       2 UNK        -0.1926 
     64 N         -78.2634   23.9923  -72.9905 N.am      2 UNK        -0.4687 
     65 C         -79.2584   24.2671  -72.1362 C.2       1 UNK         0.5165 
     66 O         -79.8708   23.4116  -71.4910 O.2       1 UNK        -0.5079 
     67 H67       -83.2406   26.9798  -74.2872 H         1 UNK         0.0900 
     68 H68       -83.5260   26.3633  -72.6582 H         1 UNK         0.0900 
     69 H69       -83.5600   25.2607  -74.0366 H         1 UNK         0.0900 
     70 H70       -81.6342   26.1880  -71.4802 H         1 UNK         0.2959 
     71 H71       -79.0403   26.3561  -72.6504 H         1 UNK         0.1079 
     72 H72       -79.8347   27.1591  -70.2949 H         1 UNK         0.0837 
     73 H73       -79.6476   25.5216  -69.7625 H         1 UNK         0.0837 
     74 H74       -78.2501   28.6541  -69.3690 H         1 UNK         0.0685 
     75 H75       -76.5211   28.5942  -69.5610 H         1 UNK         0.0685 
     76 H76       -79.6957   29.3195  -71.2927 H         1 UNK         0.1434 
     77 H77       -77.7450   31.0577  -74.6954 H         1 UNK         0.1329 
     78 H78       -75.4641   28.9093  -71.7712 H         1 UNK         0.1335 
     79 H79       -75.4902   30.2859  -75.2230 H         1 UNK         0.0680 
     80 H80       -74.5543   29.3637  -74.0871 H         1 UNK         0.0680 
     81 H81       -73.9577   30.4871  -71.6922 H         1 UNK         0.1032 
     82 H82       -73.4042   32.1213  -71.5584 H         1 UNK         0.1032 
     83 H83       -71.3955   31.6625  -72.8625 H         1 UNK         0.0461 
     84 H84       -70.5292   28.8939  -70.0118 H         1 UNK         0.3453 
     85 H85       -71.1927   28.4058  -71.5543 H         1 UNK         0.3453 
     86 H86       -72.7099   29.2441  -73.7044 H         1 UNK         0.2984 
     87 H87       -70.9865   28.5865  -76.0926 H         1 UNK         0.0554 
     88 H88       -69.6518   26.4825  -75.8155 H         1 UNK         0.0847 
     89 H89       -69.3382   26.9053  -74.1328 H         1 UNK         0.0847 
     90 H90       -68.7087   27.9104  -75.4295 H         1 UNK         0.0847 
     91 H91       -72.6110   27.1757  -75.6987 H         1 UNK         0.3141 
     92 H92       -73.2645   24.7189  -73.4188 H         1 UNK         0.0743 
     93 H93       -75.1572   27.1193  -73.3116 H         1 UNK         0.0784 
     94 H94       -75.4947   25.4830  -72.7687 H         1 UNK         0.0784 
     95 H95       -74.3307   26.4638  -71.9019 H         1 UNK         0.0784 
     96 H96       -74.9758   25.9951  -75.3780 H         1 UNK         0.3213 
     97 H97       -73.4359   24.7214  -78.2427 H         1 UNK         0.0855 
     98 H98       -76.0455   23.6824  -77.0114 H         1 UNK         0.0814 
     99 H99       -74.6919   22.6731  -77.5041 H         1 UNK         0.0814 
    100 H100      -75.5849   23.5835  -78.7101 H         1 UNK         0.0814 
    101 H101      -75.9363   25.9576  -78.0068 H         1 UNK         0.3105 
    102 H102      -74.8993   29.3658  -77.7535 H         1 UNK         0.0547 
    103 H103      -74.6382   28.6350  -80.1676 H         1 UNK         0.0837 
    104 H104      -76.1250   27.7049  -80.0366 H         1 UNK         0.0837 
    105 H105      -76.1584   29.4602  -79.8910 H         1 UNK         0.0837 
    106 H106      -76.7486   27.3609  -76.9333 H         1 UNK         0.3020 
    107 H107      -78.4302   28.4016  -75.4436 H         1 UNK         0.1245 
    108 H108      -79.4772   30.7441  -76.1610 H         1 UNK         0.0781 
    109 H109      -80.5669   29.7974  -77.1172 H         1 UNK         0.0781 
    110 H110      -80.1357   31.6542  -74.0723 H         1 UNK         0.0836 
    111 H111      -80.9212   30.8139  -72.7658 H         1 UNK         0.0836 
    112 H112      -80.2801   27.5320  -77.4887 H         1 UNK         0.3022 
    113 H113      -80.6592   25.1427  -77.4981 H         1 UNK         0.0747 
    114 H114      -79.8739   24.5180  -79.8167 H         1 UNK         0.0793 
    115 H115      -79.7004   26.2446  -79.5807 H         1 UNK         0.0793 
    116 H116      -78.2869   25.2036  -79.4802 H         1 UNK         0.0793 
    117 H117      -78.2902   23.9015  -76.6339 H         1 UNK         0.3047 
    118 H118      -79.6079   20.6620  -76.6095 H         1 UNK         0.0822 
    119 H119      -77.3935   19.8688  -77.4360 H         1 UNK         0.0807 
    120 H120      -77.0880   21.4388  -78.1802 H         1 UNK         0.0807 
    121 H121      -78.3947   20.4229  -78.7667 H         1 UNK         0.0807 
    122 H122      -77.1172   21.8331  -75.7142 H         1 UNK         0.2946 
    123 H123      -77.9614   21.9723  -72.5099 H         1 UNK         0.1144 
    124 H124      -75.9450   21.6977  -73.9688 H         1 UNK         0.0793 
    125 H125      -75.7414   23.0123  -72.8359 H         1 UNK         0.0793 
    126 H126      -76.1011   23.3692  -74.5181 H         1 UNK         0.0793 
    127 H127      -77.8500   24.7548  -73.5075 H         1 UNK         0.2896 
@<TRIPOS>BOND
     1    1    2 1    
     2    1   67 1    
     3    1   68 1    
     4    1   69 1    
     5    2    3 2    
     6    2    4 am   BACKBONE|DICT|INTERRES
     7    4    5 1    
     8    4   70 1    
     9    5    6 1    
    10    5   65 1    
    11    5   71 1    
    12    6    7 1    
    13    6   72 1    
    14    6   73 1    
    15    7    8 1    
    16    8    9 1    
    17    8   74 1    
    18    8   75 1    
    19    9   10 ar   
    20    9   14 ar   
    21   10   11 ar   
    22   10   76 1    
    23   11   12 ar   
    24   11   48 1    
    25   12   13 ar   
    26   12   77 1    
    27   13   14 ar   
    28   13   15 1    
    29   14   78 1    
    30   15   16 1    
    31   15   79 1    
    32   15   80 1    
    33   16   17 1    
    34   17   18 1    
    35   17   81 1    
    36   17   82 1    
    37   18   19 1    
    38   18   22 1    
    39   18   83 1    
    40   19   20 am   BACKBONE|DICT|INTERRES
    41   19   21 2    
    42   20   84 1    
    43   20   85 1    
    44   22   23 am   BACKBONE|DICT|INTERRES
    45   22   86 1    
    46   23   24 2    
    47   23   25 1    
    48   25   26 1    
    49   25   27 1    
    50   25   87 1    
    51   26   88 1    
    52   26   89 1    
    53   26   90 1    
    54   27   28 am   BACKBONE|DICT|INTERRES
    55   27   91 1    
    56   28   29 2    
    57   28   30 1    
    58   30   31 1    
    59   30   32 1    
    60   30   92 1    
    61   31   93 1    
    62   31   94 1    
    63   31   95 1    
    64   32   33 am   BACKBONE|DICT|INTERRES
    65   32   96 1    
    66   33   34 2    
    67   33   35 1    
    68   35   36 1    
    69   35   37 1    
    70   35   97 1    
    71   36   98 1    
    72   36   99 1    
    73   36  100 1    
    74   37   38 am   BACKBONE|DICT|INTERRES
    75   37  101 1    
    76   38   39 2    
    77   38   40 1    
    78   40   41 1    
    79   40   42 1    
    80   40  102 1    
    81   41  103 1    
    82   41  104 1    
    83   41  105 1    
    84   42   43 am   BACKBONE|DICT|INTERRES
    85   42  106 1    
    86   43   44 2    
    87   43   45 1    
    88   45   46 1    
    89   45   49 1    
    90   45  107 1    
    91   46   47 1    
    92   46  108 1    
    93   46  109 1    
    94   47   48 1    
    95   48  110 1    
    96   48  111 1    
    97   49   50 am   BACKBONE|DICT|INTERRES
    98   49  112 1    
    99   50   51 2    
   100   50   52 1    
   101   52   53 1    
   102   52   54 1    
   103   52  113 1    
   104   53  114 1    
   105   53  115 1    
   106   53  116 1    
   107   54   55 am   BACKBONE|DICT|INTERRES
   108   54  117 1    
   109   55   56 2    
   110   55   57 1    
   111   57   58 1    
   112   57   59 1    
   113   57  118 1    
   114   58  119 1    
   115   58  120 1    
   116   58  121 1    
   117   59   60 am   BACKBONE|DICT|INTERRES
   118   59  122 1    
   119   60   61 2    
   120   60   62 1    
   121   62   63 1    
   122   62   64 1    
   123   62  123 1    
   124   63  124 1    
   125   63  125 1    
   126   63  126 1    
   127   64   65 am   BACKBONE|DICT|INTERRES
   128   64  127 1    
   129   65   66 2    
@<TRIPOS>SUBSTRUCTURE
     1 UNK         1 GROUP             0       ****    0 ROOT    
