@<TRIPOS>MOLECULE
3R135
127   129    1
SMALL
USER_CHARGES


@<TRIPOS>ATOM
      1 CA        -79.1594   31.9188  -74.4117 C.3       0 UNK        -0.1998 
      2 C         -79.2628   30.4118  -74.2318 C.2       0 UNK         0.4909 
      3 O         -78.3437   29.6825  -74.6087 O.2       0 UNK        -0.5240 
      4 N         -80.3737   29.9503  -73.6486 N.am      1 UNK        -0.4739 
      5 CA        -80.6788   28.5383  -73.3986 C.3       1 UNK         0.0864 
      6 C6        -81.8921   28.3628  -72.4389 C.3       11 UNK        -0.0881 
      7 S7        -81.9690   29.5580  -71.0556 S.3       11 UNK        -0.2682 
      8 C8        -81.1017   28.6846  -69.7134 C.3       11 UNK         0.0289 
      9 C9        -79.6035   28.5494  -69.9585 C.ar      11 UNK        -0.0687 
     10 C10       -78.9901   27.3007  -69.8375 C.ar      11 UNK        -0.0823 
     11 C11       -77.6154   27.1649  -70.0413 C.ar      11 UNK        -0.0830 
     12 C12       -76.8488   28.2930  -70.3485 C.ar      11 UNK        -0.1021 
     13 C13       -77.4486   29.5497  -70.5051 C.ar      11 UNK        -0.0753 
     14 C14       -78.8257   29.6659  -70.2885 C.ar      11 UNK        -0.0933 
     15 C15       -76.6701   30.8069  -70.9130 C.3       11 UNK         0.0166 
     16 S16       -74.9297   30.5616  -71.4242 S.3       11 UNK        -0.2615 
     17 C17       -75.1165   29.5279  -72.9216 C.3       11 UNK        -0.0865 
     18 CA        -74.2706   29.9807  -74.1407 C.3       10 UNK         0.0862 
     19 C         -74.7799   31.2881  -74.8132 C.2       10 UNK         0.5551 
     20 N         -76.0186   31.3101  -75.2802 N.am      10 UNK        -0.7319 
     21 O         -74.0611   32.2778  -74.9413 O.2       10 UNK        -0.5018 
     22 N         -72.8385   30.0351  -73.8053 N.am      10 UNK        -0.4509 
     23 C         -71.7933   29.8956  -74.6331 C.2       10 UNK         0.4899 
     24 O         -70.6564   30.1963  -74.2700 O.2       10 UNK        -0.4839 
     25 CA        -72.0024   29.2944  -76.0430 C.3       9 UNK         0.0222 
     26 CB        -70.9467   29.7814  -77.0598 C.3       9 UNK        -0.1966 
     27 N         -72.0507   27.8260  -75.9845 N.am      9 UNK        -0.4218 
     28 C         -71.0640   26.9814  -75.6370 C.2       9 UNK         0.5020 
     29 O         -69.9192   27.3286  -75.3426 O.2       9 UNK        -0.5274 
     30 CA        -71.3915   25.4769  -75.6133 C.3       8 UNK         0.0270 
     31 CB        -71.6815   25.0146  -74.1758 C.3       8 UNK        -0.1976 
     32 N         -72.5020   25.0928  -76.4900 N.am      8 UNK        -0.4313 
     33 C         -72.4444   25.0836  -77.8302 C.2       8 UNK         0.5041 
     34 O         -71.4307   25.3609  -78.4728 O.2       8 UNK        -0.5577 
     35 CA        -73.7334   24.7148  -78.5878 C.3       7 UNK         0.0284 
     36 CB        -73.8696   23.1892  -78.7140 C.3       7 UNK        -0.1958 
     37 N         -74.9416   25.2665  -77.9702 N.am      7 UNK        -0.4454 
     38 C         -75.2165   26.5752  -77.8668 C.2       7 UNK         0.5089 
     39 O         -74.5128   27.4674  -78.3402 O.2       7 UNK        -0.5125 
     40 CA        -76.4584   26.9563  -77.0437 C.3       6 UNK         0.0408 
     41 CB        -77.7334   26.8988  -77.8981 C.3       6 UNK        -0.1791 
     42 N         -76.6198   26.1181  -75.8543 N.am      6 UNK        -0.4762 
     43 C         -75.7537   26.0830  -74.8318 C.2       6 UNK         0.5007 
     44 O         -74.7204   26.7474  -74.7830 O.2       6 UNK        -0.5032 
     45 CA        -76.0800   25.1049  -73.6928 C.3       5 UNK         0.0783 
     46 C46       -77.2066   25.6867  -72.8124 C.3       11 UNK        -0.0857 
     47 S47       -77.5340   24.6922  -71.3173 S.3       11 UNK        -0.2512 
     48 C48       -76.9599   25.7913  -69.9768 C.3       11 UNK         0.0225 
     49 N         -76.3932   23.7752  -74.2237 N.am      5 UNK        -0.4615 
     50 C         -75.4987   22.9921  -74.8439 C.2       4 UNK         0.5053 
     51 O         -74.3175   23.2982  -74.9976 O.2       4 UNK        -0.5105 
     52 CA        -76.0004   21.6624  -75.4294 C.3       4 UNK         0.0263 
     53 CB        -75.8969   20.5435  -74.3813 C.3       4 UNK        -0.1981 
     54 N         -77.3682   21.7204  -75.9476 N.am      4 UNK        -0.4224 
     55 C         -77.8013   22.5409  -76.9152 C.2       3 UNK         0.4895 
     56 O         -77.0849   23.3622  -77.4907 O.2       3 UNK        -0.5091 
     57 CA        -79.2921   22.4540  -77.2948 C.3       3 UNK         0.0250 
     58 CB        -80.0529   21.2899  -76.6178 C.3       3 UNK        -0.1996 
     59 N         -80.0023   23.7162  -77.0581 N.am      3 UNK        -0.4254 
     60 C         -80.0549   24.4126  -75.9132 C.2       2 UNK         0.5004 
     61 O         -79.4339   24.1215  -74.8872 O.2       2 UNK        -0.5226 
     62 CA        -80.9853   25.6290  -75.9164 C.3       2 UNK         0.0269 
     63 CB        -82.4614   25.1874  -75.8699 C.3       2 UNK        -0.1926 
     64 N         -80.6960   26.4860  -74.7666 N.am      2 UNK        -0.4687 
     65 C         -80.9515   27.7982  -74.7279 C.2       1 UNK         0.5165 
     66 O         -81.4451   28.4138  -75.6778 O.2       1 UNK        -0.5079 
     67 H67       -78.3224   32.3101  -73.8343 H         1 UNK         0.0900 
     68 H68       -80.0639   32.4312  -74.0845 H         1 UNK         0.0900 
     69 H69       -78.9961   32.1605  -75.4614 H         1 UNK         0.0900 
     70 H70       -81.0935   30.5971  -73.3607 H         1 UNK         0.2959 
     71 H71       -79.7965   28.0942  -72.9314 H         1 UNK         0.1079 
     72 H72       -81.9113   27.3474  -72.0387 H         1 UNK         0.0837 
     73 H73       -82.8301   28.4807  -72.9862 H         1 UNK         0.0837 
     74 H74       -81.5676   27.7091  -69.5660 H         1 UNK         0.0685 
     75 H75       -81.2502   29.2388  -68.7859 H         1 UNK         0.0685 
     76 H76       -79.5811   26.4270  -69.5978 H         1 UNK         0.1434 
     77 H77       -75.7857   28.1719  -70.4924 H         1 UNK         0.1329 
     78 H78       -79.3012   30.6319  -70.3911 H         1 UNK         0.1335 
     79 H79       -76.6791   31.5028  -70.0730 H         1 UNK         0.0680 
     80 H80       -77.1966   31.3033  -71.7296 H         1 UNK         0.0680 
     81 H81       -74.8226   28.5116  -72.6562 H         1 UNK         0.1032 
     82 H82       -76.1701   29.4531  -73.1917 H         1 UNK         0.1032 
     83 H83       -74.4107   29.2105  -74.8952 H         1 UNK         0.0461 
     84 H84       -76.3422   32.1476  -75.7364 H         1 UNK         0.3453 
     85 H85       -76.6603   30.5352  -75.1439 H         1 UNK         0.3453 
     86 H86       -72.6557   30.4047  -72.8841 H         1 UNK         0.2984 
     87 H87       -72.9593   29.6268  -76.4422 H         1 UNK         0.0554 
     88 H88       -70.9842   30.8666  -77.1623 H         1 UNK         0.0847 
     89 H89       -71.1243   29.3553  -78.0472 H         1 UNK         0.0847 
     90 H90       -69.9299   29.5231  -76.7632 H         1 UNK         0.0847 
     91 H91       -72.9653   27.4162  -76.1353 H         1 UNK         0.3141 
     92 H92       -70.5000   24.9493  -75.9591 H         1 UNK         0.0743 
     93 H93       -70.8601   25.2763  -73.5074 H         1 UNK         0.0784 
     94 H94       -72.5852   25.4755  -73.7766 H         1 UNK         0.0784 
     95 H95       -71.8053   23.9327  -74.1247 H         1 UNK         0.0784 
     96 H96       -73.3513   24.7757  -76.0322 H         1 UNK         0.3213 
     97 H97       -73.6570   25.1341  -79.5934 H         1 UNK         0.0855 
     98 H98       -73.9373   22.7090  -77.7379 H         1 UNK         0.0814 
     99 H99       -73.0068   22.7628  -79.2274 H         1 UNK         0.0814 
    100 H100      -74.7567   22.9142  -79.2851 H         1 UNK         0.0814 
    101 H101      -75.6197   24.6012  -77.6054 H         1 UNK         0.3105 
    102 H102      -76.3264   27.9867  -76.7055 H         1 UNK         0.0547 
    103 H103      -77.6294   27.5136  -78.7932 H         1 UNK         0.0837 
    104 H104      -77.9595   25.8831  -78.2245 H         1 UNK         0.0837 
    105 H105      -78.5928   27.2789  -77.3459 H         1 UNK         0.0837 
    106 H106      -77.4074   25.4854  -75.8372 H         1 UNK         0.3020 
    107 H107      -75.1802   25.0161  -73.0792 H         1 UNK         0.1245 
    108 H108      -78.1381   25.7623  -73.3725 H         1 UNK         0.0781 
    109 H109      -76.9586   26.7099  -72.5326 H         1 UNK         0.0781 
    110 H110      -77.1857   25.3282  -69.0152 H         1 UNK         0.0836 
    111 H111      -75.8731   25.8741  -70.0294 H         1 UNK         0.0836 
    112 H112      -77.3624   23.4856  -74.1739 H         1 UNK         0.3022 
    113 H113      -75.3474   21.4060  -76.2655 H         1 UNK         0.0747 
    114 H114      -74.8795   20.4645  -73.9952 H         1 UNK         0.0793 
    115 H115      -76.1554   19.5739  -74.8072 H         1 UNK         0.0793 
    116 H116      -76.5547   20.7247  -73.5302 H         1 UNK         0.0793 
    117 H117      -78.0400   21.1001  -75.5198 H         1 UNK         0.3047 
    118 H118      -79.3150   22.2810  -78.3719 H         1 UNK         0.0822 
    119 H119      -81.0776   21.2312  -76.9856 H         1 UNK         0.0807 
    120 H120      -80.1042   21.4037  -75.5340 H         1 UNK         0.0807 
    121 H121      -79.5866   20.3279  -76.8356 H         1 UNK         0.0807 
    122 H122      -80.5265   24.0636  -77.8493 H         1 UNK         0.2946 
    123 H123      -80.8019   26.1854  -76.8387 H         1 UNK         0.1144 
    124 H124      -82.7127   24.5463  -76.7157 H         1 UNK         0.0793 
    125 H125      -83.1352   26.0435  -75.9084 H         1 UNK         0.0793 
    126 H126      -82.6840   24.6287  -74.9599 H         1 UNK         0.0793 
    127 H127      -80.2670   26.0108  -73.9825 H         1 UNK         0.2896 
@<TRIPOS>BOND
     1    1    2 1    
     2    1   67 1    
     3    1   68 1    
     4    1   69 1    
     5    2    3 2    
     6    2    4 am   BACKBONE|DICT|INTERRES
     7    4    5 1    
     8    4   70 1    
     9    5    6 1    
    10    5   65 1    
    11    5   71 1    
    12    6    7 1    
    13    6   72 1    
    14    6   73 1    
    15    7    8 1    
    16    8    9 1    
    17    8   74 1    
    18    8   75 1    
    19    9   10 ar   
    20    9   14 ar   
    21   10   11 ar   
    22   10   76 1    
    23   11   12 ar   
    24   11   48 1    
    25   12   13 ar   
    26   12   77 1    
    27   13   14 ar   
    28   13   15 1    
    29   14   78 1    
    30   15   16 1    
    31   15   79 1    
    32   15   80 1    
    33   16   17 1    
    34   17   18 1    
    35   17   81 1    
    36   17   82 1    
    37   18   19 1    
    38   18   22 1    
    39   18   83 1    
    40   19   20 am   BACKBONE|DICT|INTERRES
    41   19   21 2    
    42   20   84 1    
    43   20   85 1    
    44   22   23 am   BACKBONE|DICT|INTERRES
    45   22   86 1    
    46   23   24 2    
    47   23   25 1    
    48   25   26 1    
    49   25   27 1    
    50   25   87 1    
    51   26   88 1    
    52   26   89 1    
    53   26   90 1    
    54   27   28 am   BACKBONE|DICT|INTERRES
    55   27   91 1    
    56   28   29 2    
    57   28   30 1    
    58   30   31 1    
    59   30   32 1    
    60   30   92 1    
    61   31   93 1    
    62   31   94 1    
    63   31   95 1    
    64   32   33 am   BACKBONE|DICT|INTERRES
    65   32   96 1    
    66   33   34 2    
    67   33   35 1    
    68   35   36 1    
    69   35   37 1    
    70   35   97 1    
    71   36   98 1    
    72   36   99 1    
    73   36  100 1    
    74   37   38 am   BACKBONE|DICT|INTERRES
    75   37  101 1    
    76   38   39 2    
    77   38   40 1    
    78   40   41 1    
    79   40   42 1    
    80   40  102 1    
    81   41  103 1    
    82   41  104 1    
    83   41  105 1    
    84   42   43 am   BACKBONE|DICT|INTERRES
    85   42  106 1    
    86   43   44 2    
    87   43   45 1    
    88   45   46 1    
    89   45   49 1    
    90   45  107 1    
    91   46   47 1    
    92   46  108 1    
    93   46  109 1    
    94   47   48 1    
    95   48  110 1    
    96   48  111 1    
    97   49   50 am   BACKBONE|DICT|INTERRES
    98   49  112 1    
    99   50   51 2    
   100   50   52 1    
   101   52   53 1    
   102   52   54 1    
   103   52  113 1    
   104   53  114 1    
   105   53  115 1    
   106   53  116 1    
   107   54   55 am   BACKBONE|DICT|INTERRES
   108   54  117 1    
   109   55   56 2    
   110   55   57 1    
   111   57   58 1    
   112   57   59 1    
   113   57  118 1    
   114   58  119 1    
   115   58  120 1    
   116   58  121 1    
   117   59   60 am   BACKBONE|DICT|INTERRES
   118   59  122 1    
   119   60   61 2    
   120   60   62 1    
   121   62   63 1    
   122   62   64 1    
   123   62  123 1    
   124   63  124 1    
   125   63  125 1    
   126   63  126 1    
   127   64   65 am   BACKBONE|DICT|INTERRES
   128   64  127 1    
   129   65   66 2    
@<TRIPOS>SUBSTRUCTURE
     1 UNK         1 GROUP             0       ****    0 ROOT    
