@<TRIPOS>MOLECULE
3R135
127   129    1
SMALL
USER_CHARGES


@<TRIPOS>ATOM
      1 CA        -80.3363   26.2683  -70.5998 C.3       0 UNK        -0.1998 
      2 C         -81.1699   26.6699  -71.8073 C.2       0 UNK         0.4909 
      3 O         -82.2874   27.1607  -71.6453 O.2       0 UNK        -0.5240 
      4 N         -80.6396   26.4576  -73.0147 N.am      1 UNK        -0.4739 
      5 CA        -81.3159   26.7008  -74.2878 C.3       1 UNK         0.0864 
      6 C6        -81.2733   28.1883  -74.7378 C.3       11 UNK        -0.0881 
      7 S7        -79.5912   28.8913  -74.8874 S.3       11 UNK        -0.2682 
      8 C8        -79.5101   29.9687  -73.4205 C.3       11 UNK         0.0289 
      9 C9        -78.1080   29.9509  -72.8393 C.ar      11 UNK        -0.0687 
     10 C10       -77.7211   28.8853  -72.0269 C.ar      11 UNK        -0.0823 
     11 C11       -76.4036   28.7716  -71.5772 C.ar      11 UNK        -0.0830 
     12 C12       -75.4963   29.7938  -71.8691 C.ar      11 UNK        -0.1021 
     13 C13       -75.8802   30.8953  -72.6435 C.ar      11 UNK        -0.0753 
     14 C14       -77.1878   30.9591  -73.1391 C.ar      11 UNK        -0.0933 
     15 C15       -74.9000   32.0266  -72.9371 C.3       11 UNK         0.0166 
     16 S16       -73.3913   31.4639  -73.7910 S.3       11 UNK        -0.2615 
     17 C17       -72.2053   31.4029  -72.4008 C.3       11 UNK        -0.0865 
     18 CA        -70.8721   30.6780  -72.7471 C.3       10 UNK         0.0862 
     19 C         -69.8472   30.7296  -71.5730 C.2       10 UNK         0.5551 
     20 N         -69.0264   29.7069  -71.3658 N.am      10 UNK        -0.7319 
     21 O         -69.7704   31.7243  -70.8555 O.2       10 UNK        -0.5018 
     22 N         -71.0608   29.3413  -73.3386 N.am      10 UNK        -0.4509 
     23 C         -71.6754   28.2876  -72.7887 C.2       10 UNK         0.4899 
     24 O         -72.1804   28.2970  -71.6653 O.2       10 UNK        -0.4839 
     25 CA        -71.7293   27.0070  -73.6513 C.3       9 UNK         0.0222 
     26 CB        -72.5201   25.8721  -72.9743 C.3       9 UNK        -0.1966 
     27 N         -72.2822   27.2451  -74.9907 N.am      9 UNK        -0.4218 
     28 C         -71.6394   27.8396  -76.0083 C.2       9 UNK         0.5020 
     29 O         -70.4808   28.2522  -75.9320 O.2       9 UNK        -0.5274 
     30 CA        -72.4153   28.0359  -77.3168 C.3       8 UNK         0.0270 
     31 CB        -72.2763   26.7958  -78.2151 C.3       8 UNK        -0.1976 
     32 N         -73.8319   28.2849  -77.0576 N.am      8 UNK        -0.4313 
     33 C         -74.4312   29.4841  -77.0876 C.2       8 UNK         0.5041 
     34 O         -73.8402   30.5303  -77.3604 O.2       8 UNK        -0.5577 
     35 CA        -75.9439   29.5267  -76.7633 C.3       7 UNK         0.0284 
     36 CB        -76.6922   30.6219  -77.5504 C.3       7 UNK        -0.1958 
     37 N         -76.6174   28.2285  -76.9078 N.am      7 UNK        -0.4454 
     38 C         -76.6841   27.4522  -78.0019 C.2       7 UNK         0.5089 
     39 O         -76.3241   27.8123  -79.1229 O.2       7 UNK        -0.5125 
     40 CA        -77.1827   26.0059  -77.7906 C.3       6 UNK         0.0408 
     41 CB        -76.4947   25.0076  -78.7443 C.3       6 UNK        -0.1791 
     42 N         -77.0802   25.5306  -76.4020 N.am      6 UNK        -0.4762 
     43 C         -75.9741   25.4373  -75.6412 C.2       6 UNK         0.5007 
     44 O         -74.8485   25.7683  -76.0194 O.2       6 UNK        -0.5032 
     45 CA        -76.1671   24.9983  -74.1817 C.3       5 UNK         0.0783 
     46 C46       -76.4203   26.2620  -73.3305 C.3       11 UNK        -0.0857 
     47 S47       -76.5448   25.9517  -71.5362 S.3       11 UNK        -0.2512 
     48 C48       -75.9349   27.5271  -70.8240 C.3       11 UNK         0.0225 
     49 N         -77.2590   24.0266  -74.0767 N.am      5 UNK        -0.4615 
     50 C         -77.1664   22.8330  -73.4813 C.2       4 UNK         0.5053 
     51 O         -76.1526   22.4102  -72.9247 O.2       4 UNK        -0.5105 
     52 CA        -78.4248   21.9525  -73.5333 C.3       4 UNK         0.0263 
     53 CB        -79.5097   22.4921  -72.5851 C.3       4 UNK        -0.1981 
     54 N         -78.9710   21.8384  -74.8870 N.am      4 UNK        -0.4224 
     55 C         -78.3684   21.2443  -75.9258 C.2       3 UNK         0.4895 
     56 O         -77.2807   20.6728  -75.8468 O.2       3 UNK        -0.5091 
     57 CA        -79.0815   21.2935  -77.2925 C.3       3 UNK         0.0250 
     58 CB        -80.0504   20.1056  -77.4555 C.3       3 UNK        -0.1996 
     59 N         -79.7346   22.5755  -77.6053 N.am      3 UNK        -0.4254 
     60 C         -80.7858   23.1476  -77.0022 C.2       2 UNK         0.5004 
     61 O         -81.4224   22.6327  -76.0798 O.2       2 UNK        -0.5226 
     62 CA        -81.1679   24.5550  -77.4905 C.3       2 UNK         0.0269 
     63 CB        -82.3521   24.4788  -78.4673 C.3       2 UNK        -0.1926 
     64 N         -81.5105   25.4601  -76.3878 N.am      2 UNK        -0.4687 
     65 C         -80.7277   25.7428  -75.3363 C.2       1 UNK         0.5165 
     66 O         -79.5867   25.2886  -75.1800 O.2       1 UNK        -0.5079 
     67 H67       -80.9311   25.6599  -69.9190 H         1 UNK         0.0900 
     68 H68       -80.0010   27.1538  -70.0606 H         1 UNK         0.0900 
     69 H69       -79.4601   25.6879  -70.8867 H         1 UNK         0.0900 
     70 H70       -79.7295   26.0287  -73.1173 H         1 UNK         0.2959 
     71 H71       -82.3630   26.4134  -74.1653 H         1 UNK         0.1079 
     72 H72       -81.7707   28.3044  -75.7023 H         1 UNK         0.0837 
     73 H73       -81.8607   28.7932  -74.0459 H         1 UNK         0.0837 
     74 H74       -79.8074   30.9816  -73.6960 H         1 UNK         0.0685 
     75 H75       -80.2154   29.6324  -72.6591 H         1 UNK         0.0685 
     76 H76       -78.4316   28.1025  -71.8074 H         1 UNK         0.1434 
     77 H77       -74.4822   29.7160  -71.5083 H         1 UNK         0.1329 
     78 H78       -77.4905   31.7894  -73.7623 H         1 UNK         0.1335 
     79 H79       -75.3734   32.7834  -73.5645 H         1 UNK         0.0680 
     80 H80       -74.6408   32.5295  -72.0045 H         1 UNK         0.0680 
     81 H81       -72.6708   30.9363  -71.5336 H         1 UNK         0.1032 
     82 H82       -72.0025   32.4338  -72.1049 H         1 UNK         0.1032 
     83 H83       -70.3994   31.2600  -73.5389 H         1 UNK         0.0461 
     84 H84       -68.3592   29.7517  -70.6117 H         1 UNK         0.3453 
     85 H85       -69.0719   28.8914  -71.9550 H         1 UNK         0.3453 
     86 H86       -70.6754   29.2121  -74.2697 H         1 UNK         0.2984 
     87 H87       -70.7002   26.6607  -73.7672 H         1 UNK         0.0554 
     88 H88       -72.5488   24.9768  -73.5956 H         1 UNK         0.0847 
     89 H89       -73.5454   26.1681  -72.7578 H         1 UNK         0.0847 
     90 H90       -72.0609   25.5910  -72.0256 H         1 UNK         0.0847 
     91 H91       -73.2242   26.9146  -75.1551 H         1 UNK         0.3141 
     92 H92       -71.9753   28.8859  -77.8427 H         1 UNK         0.0743 
     93 H93       -72.6798   25.9006  -77.7399 H         1 UNK         0.0784 
     94 H94       -72.7987   26.9344  -79.1620 H         1 UNK         0.0784 
     95 H95       -71.2289   26.5984  -78.4478 H         1 UNK         0.0784 
     96 H96       -74.3915   27.4685  -76.8290 H         1 UNK         0.3213 
     97 H97       -76.0098   29.7825  -75.7043 H         1 UNK         0.0855 
     98 H98       -76.2820   31.6088  -77.3333 H         1 UNK         0.0814 
     99 H99       -77.7489   30.6468  -77.2840 H         1 UNK         0.0814 
    100 H100      -76.6185   30.4681  -78.6272 H         1 UNK         0.0814 
    101 H101      -76.9924   27.8410  -76.0538 H         1 UNK         0.3105 
    102 H102      -78.2452   26.0219  -78.0307 H         1 UNK         0.0547 
    103 H103      -76.6930   25.2586  -79.7870 H         1 UNK         0.0837 
    104 H104      -75.4121   25.0056  -78.6122 H         1 UNK         0.0837 
    105 H105      -76.8523   23.9910  -78.5833 H         1 UNK         0.0837 
    106 H106      -77.9768   25.3349  -75.9610 H         1 UNK         0.3020 
    107 H107      -75.2265   24.5426  -73.8644 H         1 UNK         0.1245 
    108 H108      -77.3464   26.7431  -73.6505 H         1 UNK         0.0781 
    109 H109      -75.6256   26.9925  -73.4960 H         1 UNK         0.0781 
    110 H110      -74.8443   27.4872  -70.8057 H         1 UNK         0.0836 
    111 H111      -76.2585   27.5960  -69.7849 H         1 UNK         0.0836 
    112 H112      -78.1447   24.2920  -74.4958 H         1 UNK         0.3022 
    113 H113      -78.1455   20.9512  -73.1988 H         1 UNK         0.0747 
    114 H114      -80.3602   21.8124  -72.5315 H         1 UNK         0.0793 
    115 H115      -79.1219   22.6065  -71.5718 H         1 UNK         0.0793 
    116 H116      -79.8820   23.4660  -72.9044 H         1 UNK         0.0793 
    117 H117      -79.8858   22.2481  -75.0594 H         1 UNK         0.3047 
    118 H118      -78.3009   21.1773  -78.0465 H         1 UNK         0.0822 
    119 H119      -80.5057   20.0980  -78.4458 H         1 UNK         0.0807 
    120 H120      -80.8528   20.1252  -76.7175 H         1 UNK         0.0807 
    121 H121      -79.5249   19.1575  -77.3335 H         1 UNK         0.0807 
    122 H122      -79.2869   23.0952  -78.3473 H         1 UNK         0.2946 
    123 H123      -80.3165   24.9889  -78.0160 H         1 UNK         0.1144 
    124 H124      -82.1205   23.8311  -79.3141 H         1 UNK         0.0793 
    125 H125      -82.5993   25.4606  -78.8716 H         1 UNK         0.0793 
    126 H126      -83.2455   24.0780  -77.9863 H         1 UNK         0.0793 
    127 H127      -82.4350   25.8645  -76.4222 H         1 UNK         0.2896 
@<TRIPOS>BOND
     1    1    2 1    
     2    1   67 1    
     3    1   68 1    
     4    1   69 1    
     5    2    3 2    
     6    2    4 am   BACKBONE|DICT|INTERRES
     7    4    5 1    
     8    4   70 1    
     9    5    6 1    
    10    5   65 1    
    11    5   71 1    
    12    6    7 1    
    13    6   72 1    
    14    6   73 1    
    15    7    8 1    
    16    8    9 1    
    17    8   74 1    
    18    8   75 1    
    19    9   10 ar   
    20    9   14 ar   
    21   10   11 ar   
    22   10   76 1    
    23   11   12 ar   
    24   11   48 1    
    25   12   13 ar   
    26   12   77 1    
    27   13   14 ar   
    28   13   15 1    
    29   14   78 1    
    30   15   16 1    
    31   15   79 1    
    32   15   80 1    
    33   16   17 1    
    34   17   18 1    
    35   17   81 1    
    36   17   82 1    
    37   18   19 1    
    38   18   22 1    
    39   18   83 1    
    40   19   20 am   BACKBONE|DICT|INTERRES
    41   19   21 2    
    42   20   84 1    
    43   20   85 1    
    44   22   23 am   BACKBONE|DICT|INTERRES
    45   22   86 1    
    46   23   24 2    
    47   23   25 1    
    48   25   26 1    
    49   25   27 1    
    50   25   87 1    
    51   26   88 1    
    52   26   89 1    
    53   26   90 1    
    54   27   28 am   BACKBONE|DICT|INTERRES
    55   27   91 1    
    56   28   29 2    
    57   28   30 1    
    58   30   31 1    
    59   30   32 1    
    60   30   92 1    
    61   31   93 1    
    62   31   94 1    
    63   31   95 1    
    64   32   33 am   BACKBONE|DICT|INTERRES
    65   32   96 1    
    66   33   34 2    
    67   33   35 1    
    68   35   36 1    
    69   35   37 1    
    70   35   97 1    
    71   36   98 1    
    72   36   99 1    
    73   36  100 1    
    74   37   38 am   BACKBONE|DICT|INTERRES
    75   37  101 1    
    76   38   39 2    
    77   38   40 1    
    78   40   41 1    
    79   40   42 1    
    80   40  102 1    
    81   41  103 1    
    82   41  104 1    
    83   41  105 1    
    84   42   43 am   BACKBONE|DICT|INTERRES
    85   42  106 1    
    86   43   44 2    
    87   43   45 1    
    88   45   46 1    
    89   45   49 1    
    90   45  107 1    
    91   46   47 1    
    92   46  108 1    
    93   46  109 1    
    94   47   48 1    
    95   48  110 1    
    96   48  111 1    
    97   49   50 am   BACKBONE|DICT|INTERRES
    98   49  112 1    
    99   50   51 2    
   100   50   52 1    
   101   52   53 1    
   102   52   54 1    
   103   52  113 1    
   104   53  114 1    
   105   53  115 1    
   106   53  116 1    
   107   54   55 am   BACKBONE|DICT|INTERRES
   108   54  117 1    
   109   55   56 2    
   110   55   57 1    
   111   57   58 1    
   112   57   59 1    
   113   57  118 1    
   114   58  119 1    
   115   58  120 1    
   116   58  121 1    
   117   59   60 am   BACKBONE|DICT|INTERRES
   118   59  122 1    
   119   60   61 2    
   120   60   62 1    
   121   62   63 1    
   122   62   64 1    
   123   62  123 1    
   124   63  124 1    
   125   63  125 1    
   126   63  126 1    
   127   64   65 am   BACKBONE|DICT|INTERRES
   128   64  127 1    
   129   65   66 2    
@<TRIPOS>SUBSTRUCTURE
     1 UNK         1 GROUP             0       ****    0 ROOT    
