@<TRIPOS>MOLECULE
3R135
127   129    1
SMALL
USER_CHARGES


@<TRIPOS>ATOM
      1 CA        -82.3347   22.3843  -73.6864 C.3       0 UNK        -0.1998 
      2 C         -82.1602   23.8808  -73.8948 C.2       0 UNK         0.4909 
      3 O         -82.3188   24.3668  -75.0151 O.2       0 UNK        -0.5240 
      4 N         -81.8402   24.6103  -72.8175 N.am      1 UNK        -0.4739 
      5 CA        -81.6841   26.0695  -72.7934 C.3       1 UNK         0.0864 
      6 C6        -81.5514   26.5859  -71.3392 C.3       11 UNK        -0.0881 
      7 S7        -81.9173   28.3707  -71.1851 S.3       11 UNK        -0.2682 
      8 C8        -80.7447   28.9089  -69.8993 C.3       11 UNK         0.0289 
      9 C9        -79.2899   28.8169  -70.3423 C.ar      11 UNK        -0.0687 
     10 C10       -78.4911   27.7584  -69.8985 C.ar      11 UNK        -0.0823 
     11 C11       -77.1459   27.6773  -70.2666 C.ar      11 UNK        -0.0830 
     12 C12       -76.5931   28.6871  -71.0587 C.ar      11 UNK        -0.1021 
     13 C13       -77.3819   29.7395  -71.5277 C.ar      11 UNK        -0.0753 
     14 C14       -78.7322   29.8015  -71.1660 C.ar      11 UNK        -0.0933 
     15 C15       -76.7551   30.8045  -72.4133 C.3       11 UNK         0.0166 
     16 S16       -76.4619   30.1773  -74.0972 S.3       11 UNK        -0.2615 
     17 C17       -75.4422   31.5216  -74.7989 C.3       11 UNK        -0.0865 
     18 CA        -74.0851   31.0332  -75.3769 C.3       10 UNK         0.0862 
     19 C         -73.2778   32.2311  -75.9588 C.2       10 UNK         0.5551 
     20 N         -72.1169   32.5779  -75.4168 N.am      10 UNK        -0.7319 
     21 O         -73.7177   32.8571  -76.9199 O.2       10 UNK        -0.5018 
     22 N         -73.3530   30.1804  -74.4228 N.am      10 UNK        -0.4509 
     23 C         -72.3429   29.3578  -74.7356 C.2       10 UNK         0.4899 
     24 O         -71.8493   29.2870  -75.8613 O.2       10 UNK        -0.4839 
     25 CA        -71.7942   28.4566  -73.6127 C.3       9 UNK         0.0222 
     26 CB        -72.6903   28.4115  -72.3570 C.3       9 UNK        -0.1966 
     27 N         -71.6475   27.0923  -74.1159 N.am      9 UNK        -0.4218 
     28 C         -70.5090   26.5204  -74.5276 C.2       9 UNK         0.5020 
     29 O         -69.4097   27.0763  -74.5051 O.2       9 UNK        -0.5274 
     30 CA        -70.6068   25.0760  -75.0433 C.3       8 UNK         0.0270 
     31 CB        -70.7315   24.0918  -73.8672 C.3       8 UNK        -0.1976 
     32 N         -71.7516   24.9023  -75.9405 N.am      8 UNK        -0.4313 
     33 C         -71.6737   24.6132  -77.2478 C.2       8 UNK         0.5041 
     34 O         -70.6135   24.4287  -77.8475 O.2       8 UNK        -0.5577 
     35 CA        -72.9979   24.4993  -78.0314 C.3       7 UNK         0.0284 
     36 CB        -73.4262   23.0282  -78.1524 C.3       7 UNK        -0.1958 
     37 N         -74.0876   25.2667  -77.4265 N.am      7 UNK        -0.4454 
     38 C         -74.1472   26.6054  -77.4020 C.2       7 UNK         0.5089 
     39 O         -73.3823   27.3267  -78.0412 O.2       7 UNK        -0.5125 
     40 CA        -75.2119   27.2578  -76.4971 C.3       6 UNK         0.0408 
     41 CB        -76.2659   27.9906  -77.3391 C.3       6 UNK        -0.1791 
     42 N         -75.8738   26.3434  -75.5565 N.am      6 UNK        -0.4762 
     43 C         -75.2656   25.6850  -74.5567 C.2       6 UNK         0.5007 
     44 O         -74.0531   25.7470  -74.3504 O.2       6 UNK        -0.5032 
     45 CA        -76.1353   24.7444  -73.6970 C.3       5 UNK         0.0783 
     46 C46       -76.6701   25.4443  -72.4265 C.3       11 UNK        -0.0857 
     47 S47       -75.3666   25.7123  -71.1755 S.3       11 UNK        -0.2512 
     48 C48       -76.3019   26.4904  -69.8147 C.3       11 UNK         0.0225 
     49 N         -77.2234   24.1540  -74.4820 N.am      5 UNK        -0.4615 
     50 C         -77.0414   23.1955  -75.4022 C.2       4 UNK         0.5053 
     51 O         -75.9435   22.7089  -75.6709 O.2       4 UNK        -0.5105 
     52 CA        -78.2847   22.7231  -76.1706 C.3       4 UNK         0.0263 
     53 CB        -79.1390   21.7927  -75.2971 C.3       4 UNK        -0.1981 
     54 N         -79.0952   23.8447  -76.6503 N.am      4 UNK        -0.4224 
     55 C         -78.7197   24.6681  -77.6417 C.2       3 UNK         0.4895 
     56 O         -77.6790   24.5428  -78.2860 O.2       3 UNK        -0.5091 
     57 CA        -79.6218   25.8752  -77.9040 C.3       3 UNK         0.0250 
     58 CB        -81.0165   25.4663  -78.4093 C.3       3 UNK        -0.1996 
     59 N         -79.7235   26.6295  -76.6620 N.am      3 UNK        -0.4254 
     60 C         -79.7713   27.9557  -76.5311 C.2       2 UNK         0.5004 
     61 O         -79.8365   28.7349  -77.4829 O.2       2 UNK        -0.5226 
     62 CA        -79.7226   28.4866  -75.0826 C.3       2 UNK         0.0269 
     63 CB        -79.9869   30.0014  -74.9994 C.3       2 UNK        -0.1926 
     64 N         -80.6563   27.7963  -74.1883 N.am      2 UNK        -0.4687 
     65 C         -80.5269   26.5577  -73.6939 C.2       1 UNK         0.5165 
     66 O         -79.5691   25.8171  -73.9482 O.2       1 UNK        -0.5079 
     67 H67       -81.6922   22.0140  -72.8878 H         1 UNK         0.0900 
     68 H68       -83.3695   22.1614  -73.4282 H         1 UNK         0.0900 
     69 H69       -82.0909   21.8393  -74.5975 H         1 UNK         0.0900 
     70 H70       -81.6936   24.1411  -71.9354 H         1 UNK         0.2959 
     71 H71       -82.6097   26.4713  -73.2126 H         1 UNK         0.1079 
     72 H72       -80.5646   26.3503  -70.9419 H         1 UNK         0.0837 
     73 H73       -82.2616   26.0673  -70.6928 H         1 UNK         0.0837 
     74 H74       -80.9724   29.9415  -69.6311 H         1 UNK         0.0685 
     75 H75       -80.9110   28.3198  -68.9960 H         1 UNK         0.0685 
     76 H76       -78.9203   26.9932  -69.2662 H         1 UNK         0.1434 
     77 H77       -75.5509   28.6381  -71.3376 H         1 UNK         0.1329 
     78 H78       -79.3483   30.6184  -71.5156 H         1 UNK         0.1335 
     79 H79       -77.3922   31.6888  -72.4652 H         1 UNK         0.0680 
     80 H80       -75.8105   31.1248  -71.9711 H         1 UNK         0.0680 
     81 H81       -76.0307   32.0055  -75.5808 H         1 UNK         0.1032 
     82 H82       -75.2730   32.2874  -74.0397 H         1 UNK         0.1032 
     83 H83       -74.3181   30.3999  -76.2351 H         1 UNK         0.0461 
     84 H84       -71.7473   32.0630  -74.6342 H         1 UNK         0.3453 
     85 H85       -71.6014   33.3533  -75.8024 H         1 UNK         0.3453 
     86 H86       -73.7054   30.1786  -73.4780 H         1 UNK         0.2984 
     87 H87       -70.8217   28.8576  -73.3211 H         1 UNK         0.0554 
     88 H88       -72.2800   27.7333  -71.6084 H         1 UNK         0.0847 
     89 H89       -73.6953   28.0606  -72.5953 H         1 UNK         0.0847 
     90 H90       -72.7728   29.3897  -71.8819 H         1 UNK         0.0847 
     91 H91       -72.5147   26.5613  -74.1847 H         1 UNK         0.3141 
     92 H92       -69.6750   24.8543  -75.5679 H         1 UNK         0.0743 
     93 H93       -71.6511   24.2485  -73.3012 H         1 UNK         0.0784 
     94 H94       -70.7264   23.0589  -74.2159 H         1 UNK         0.0784 
     95 H95       -69.8968   24.2038  -73.1738 H         1 UNK         0.0784 
     96 H96       -72.6682   25.0654  -75.5352 H         1 UNK         0.3213 
     97 H97       -72.8224   24.8895  -79.0364 H         1 UNK         0.0855 
     98 H98       -73.6019   22.5771  -77.1748 H         1 UNK         0.0814 
     99 H99       -72.6555   22.4378  -78.6497 H         1 UNK         0.0814 
    100 H100      -74.3407   22.9267  -78.7373 H         1 UNK         0.0814 
    101 H101      -74.7803   24.7456  -76.9061 H         1 UNK         0.3105 
    102 H102      -74.6917   28.0045  -75.8969 H         1 UNK         0.0547 
    103 H103      -75.7957   28.6801  -78.0416 H         1 UNK         0.0837 
    104 H104      -76.8719   27.2978  -77.9224 H         1 UNK         0.0837 
    105 H105      -76.9274   28.5865  -76.7122 H         1 UNK         0.0837 
    106 H106      -76.8638   26.1991  -75.6823 H         1 UNK         0.3020 
    107 H107      -75.4878   23.9240  -73.3770 H         1 UNK         0.1245 
    108 H108      -77.4466   24.8345  -71.9615 H         1 UNK         0.0781 
    109 H109      -77.1459   26.3928  -72.6831 H         1 UNK         0.0781 
    110 H110      -75.6006   26.8249  -69.0494 H         1 UNK         0.0836 
    111 H111      -76.9272   25.7273  -69.3488 H         1 UNK         0.0836 
    112 H112      -78.1524   24.5293  -74.3127 H         1 UNK         0.3022 
    113 H113      -77.9448   22.1533  -77.0385 H         1 UNK         0.0747 
    114 H114      -80.0005   21.4141  -75.8471 H         1 UNK         0.0793 
    115 H115      -78.5602   20.9278  -74.9700 H         1 UNK         0.0793 
    116 H116      -79.5001   22.2981  -74.4012 H         1 UNK         0.0793 
    117 H117      -79.9782   24.0047  -76.1840 H         1 UNK         0.3047 
    118 H118      -79.1410   26.4905  -78.6679 H         1 UNK         0.0822 
    119 H119      -81.6157   26.3431  -78.6556 H         1 UNK         0.0807 
    120 H120      -81.5686   24.8868  -77.6686 H         1 UNK         0.0807 
    121 H121      -80.9421   24.8602  -79.3131 H         1 UNK         0.0807 
    122 H122      -79.6700   26.0946  -75.7998 H         1 UNK         0.2946 
    123 H123      -78.7103   28.3050  -74.7146 H         1 UNK         0.1144 
    124 H124      -79.8926   30.3636  -73.9759 H         1 UNK         0.0793 
    125 H125      -80.9837   30.2585  -75.3590 H         1 UNK         0.0793 
    126 H126      -79.2669   30.5579  -75.6012 H         1 UNK         0.0793 
    127 H127      -81.4734   28.3260  -73.9190 H         1 UNK         0.2896 
@<TRIPOS>BOND
     1    1    2 1    
     2    1   67 1    
     3    1   68 1    
     4    1   69 1    
     5    2    3 2    
     6    2    4 am   BACKBONE|DICT|INTERRES
     7    4    5 1    
     8    4   70 1    
     9    5    6 1    
    10    5   65 1    
    11    5   71 1    
    12    6    7 1    
    13    6   72 1    
    14    6   73 1    
    15    7    8 1    
    16    8    9 1    
    17    8   74 1    
    18    8   75 1    
    19    9   10 ar   
    20    9   14 ar   
    21   10   11 ar   
    22   10   76 1    
    23   11   12 ar   
    24   11   48 1    
    25   12   13 ar   
    26   12   77 1    
    27   13   14 ar   
    28   13   15 1    
    29   14   78 1    
    30   15   16 1    
    31   15   79 1    
    32   15   80 1    
    33   16   17 1    
    34   17   18 1    
    35   17   81 1    
    36   17   82 1    
    37   18   19 1    
    38   18   22 1    
    39   18   83 1    
    40   19   20 am   BACKBONE|DICT|INTERRES
    41   19   21 2    
    42   20   84 1    
    43   20   85 1    
    44   22   23 am   BACKBONE|DICT|INTERRES
    45   22   86 1    
    46   23   24 2    
    47   23   25 1    
    48   25   26 1    
    49   25   27 1    
    50   25   87 1    
    51   26   88 1    
    52   26   89 1    
    53   26   90 1    
    54   27   28 am   BACKBONE|DICT|INTERRES
    55   27   91 1    
    56   28   29 2    
    57   28   30 1    
    58   30   31 1    
    59   30   32 1    
    60   30   92 1    
    61   31   93 1    
    62   31   94 1    
    63   31   95 1    
    64   32   33 am   BACKBONE|DICT|INTERRES
    65   32   96 1    
    66   33   34 2    
    67   33   35 1    
    68   35   36 1    
    69   35   37 1    
    70   35   97 1    
    71   36   98 1    
    72   36   99 1    
    73   36  100 1    
    74   37   38 am   BACKBONE|DICT|INTERRES
    75   37  101 1    
    76   38   39 2    
    77   38   40 1    
    78   40   41 1    
    79   40   42 1    
    80   40  102 1    
    81   41  103 1    
    82   41  104 1    
    83   41  105 1    
    84   42   43 am   BACKBONE|DICT|INTERRES
    85   42  106 1    
    86   43   44 2    
    87   43   45 1    
    88   45   46 1    
    89   45   49 1    
    90   45  107 1    
    91   46   47 1    
    92   46  108 1    
    93   46  109 1    
    94   47   48 1    
    95   48  110 1    
    96   48  111 1    
    97   49   50 am   BACKBONE|DICT|INTERRES
    98   49  112 1    
    99   50   51 2    
   100   50   52 1    
   101   52   53 1    
   102   52   54 1    
   103   52  113 1    
   104   53  114 1    
   105   53  115 1    
   106   53  116 1    
   107   54   55 am   BACKBONE|DICT|INTERRES
   108   54  117 1    
   109   55   56 2    
   110   55   57 1    
   111   57   58 1    
   112   57   59 1    
   113   57  118 1    
   114   58  119 1    
   115   58  120 1    
   116   58  121 1    
   117   59   60 am   BACKBONE|DICT|INTERRES
   118   59  122 1    
   119   60   61 2    
   120   60   62 1    
   121   62   63 1    
   122   62   64 1    
   123   62  123 1    
   124   63  124 1    
   125   63  125 1    
   126   63  126 1    
   127   64   65 am   BACKBONE|DICT|INTERRES
   128   64  127 1    
   129   65   66 2    
@<TRIPOS>SUBSTRUCTURE
     1 UNK         1 GROUP             0       ****    0 ROOT    
