@<TRIPOS>MOLECULE
3R135
127   129    1
SMALL
USER_CHARGES


@<TRIPOS>ATOM
      1 CA        -84.3698   25.2187  -74.4053 C.3       0 UNK        -0.1998 
      2 C         -83.1664   26.1291  -74.5966 C.2       0 UNK         0.4909 
      3 O         -82.0373   25.6450  -74.5848 O.2       0 UNK        -0.5240 
      4 N         -83.4124   27.4309  -74.8097 N.am      1 UNK        -0.4739 
      5 CA        -82.4551   28.5464  -74.9506 C.3       1 UNK         0.0864 
      6 C6        -81.9429   29.1027  -73.5889 C.3       11 UNK        -0.0881 
      7 S7        -80.7714   28.0374  -72.6769 S.3       11 UNK        -0.2682 
      8 C8        -79.3109   29.1286  -72.5480 C.3       11 UNK         0.0289 
      9 C9        -78.0733   28.4830  -71.9197 C.ar      11 UNK        -0.0687 
     10 C10       -78.1545   27.3804  -71.0580 C.ar      11 UNK        -0.0823 
     11 C11       -77.0002   26.8087  -70.5152 C.ar      11 UNK        -0.0830 
     12 C12       -75.7526   27.3572  -70.8174 C.ar      11 UNK        -0.1021 
     13 C13       -75.6517   28.4565  -71.6727 C.ar      11 UNK        -0.0753 
     14 C14       -76.8138   29.0190  -72.2115 C.ar      11 UNK        -0.0933 
     15 C15       -74.2828   28.9958  -72.0555 C.3       11 UNK         0.0166 
     16 S16       -73.9957   30.6633  -71.3847 S.3       11 UNK        -0.2615 
     17 C17       -72.1944   30.8447  -71.6283 C.3       11 UNK        -0.0865 
     18 CA        -71.8130   31.5450  -72.9595 C.3       10 UNK         0.0862 
     19 C         -70.2841   31.8449  -72.9954 C.2       10 UNK         0.5551 
     20 N         -69.4905   31.1902  -73.8366 N.am      10 UNK        -0.7319 
     21 O         -69.8114   32.6920  -72.2417 O.2       10 UNK        -0.5018 
     22 N         -72.3045   30.7910  -74.1211 N.am      10 UNK        -0.4509 
     23 C         -72.3869   31.2549  -75.3735 C.2       10 UNK         0.4899 
     24 O         -72.1847   32.4310  -75.6795 O.2       10 UNK        -0.4839 
     25 CA        -72.7520   30.2280  -76.4680 C.3       9 UNK         0.0222 
     26 CB        -72.1002   30.5662  -77.8250 C.3       9 UNK        -0.1966 
     27 N         -72.4800   28.8267  -76.1070 N.am      9 UNK        -0.4218 
     28 C         -71.2977   28.2865  -75.7586 C.2       9 UNK         0.5020 
     29 O         -70.2571   28.9378  -75.6533 O.2       9 UNK        -0.5274 
     30 CA        -71.2623   26.7825  -75.4202 C.3       8 UNK         0.0270 
     31 CB        -71.1384   26.5858  -73.9000 C.3       8 UNK        -0.1976 
     32 N         -72.4311   26.0435  -75.9039 N.am      8 UNK        -0.4313 
     33 C         -72.6765   25.7678  -77.1947 C.2       8 UNK         0.5041 
     34 O         -71.8781   26.0032  -78.1023 O.2       8 UNK        -0.5577 
     35 CA        -74.0496   25.1606  -77.5491 C.3       7 UNK         0.0284 
     36 CB        -73.9131   23.6572  -77.8362 C.3       7 UNK        -0.1958 
     37 N         -75.0802   25.3679  -76.5252 N.am      7 UNK        -0.4454 
     38 C         -75.5197   26.5657  -76.1056 C.2       7 UNK         0.5089 
     39 O         -75.1401   27.6334  -76.5872 O.2       7 UNK        -0.5125 
     40 CA        -76.4829   26.5965  -74.9065 C.3       6 UNK         0.0408 
     41 CB        -77.9117   26.8820  -75.3756 C.3       6 UNK        -0.1791 
     42 N         -76.4648   25.3800  -74.0893 N.am      6 UNK        -0.4762 
     43 C         -75.3939   24.9376  -73.4105 C.2       6 UNK         0.5007 
     44 O         -74.3142   25.5322  -73.3941 O.2       6 UNK        -0.5032 
     45 CA        -75.4998   23.5710  -72.7006 C.3       5 UNK         0.0783 
     46 C46       -75.6264   23.7115  -71.1599 C.3       11 UNK        -0.0857 
     47 S47       -77.3224   24.0580  -70.5637 S.3       11 UNK        -0.2512 
     48 C48       -77.1066   25.5934  -69.6082 C.3       11 UNK         0.0225 
     49 N         -76.5240   22.6785  -73.2548 N.am      5 UNK        -0.4615 
     50 C         -76.6019   22.2355  -74.5157 C.2       4 UNK         0.5053 
     51 O         -75.7989   22.5419  -75.3979 O.2       4 UNK        -0.5105 
     52 CA        -77.7852   21.3103  -74.8629 C.3       4 UNK         0.0263 
     53 CB        -78.5888   20.8246  -73.6335 C.3       4 UNK        -0.1981 
     54 N         -78.6940   21.9069  -75.8494 N.am      4 UNK        -0.4224 
     55 C         -79.3110   23.0955  -75.7683 C.2       3 UNK         0.4895 
     56 O         -79.1441   23.9020  -74.8505 O.2       3 UNK        -0.5091 
     57 CA        -80.3177   23.3963  -76.8886 C.3       3 UNK         0.0250 
     58 CB        -81.6585   22.7009  -76.5947 C.3       3 UNK        -0.1996 
     59 N         -80.5576   24.8359  -76.9990 N.am      3 UNK        -0.4254 
     60 C         -80.2585   25.5838  -78.0713 C.2       2 UNK         0.5004 
     61 O         -79.7426   25.1249  -79.0918 O.2       2 UNK        -0.5226 
     62 CA        -80.5845   27.0895  -78.0190 C.3       2 UNK         0.0269 
     63 CB        -81.1691   27.5980  -79.3505 C.3       2 UNK        -0.1926 
     64 N         -81.5175   27.4141  -76.9386 N.am      2 UNK        -0.4687 
     65 C         -81.3502   28.3797  -76.0258 C.2       1 UNK         0.5165 
     66 O         -80.3945   29.1573  -76.0380 O.2       1 UNK        -0.5079 
     67 H67       -85.3098   25.7690  -74.4392 H         1 UNK         0.0900 
     68 H68       -84.3063   24.7153  -73.4410 H         1 UNK         0.0900 
     69 H69       -84.3922   24.4581  -75.1853 H         1 UNK         0.0900 
     70 H70       -84.3804   27.7209  -74.8428 H         1 UNK         0.2959 
     71 H71       -83.0686   29.3460  -75.3694 H         1 UNK         0.1079 
     72 H72       -82.7949   29.2854  -72.9326 H         1 UNK         0.0837 
     73 H73       -81.4906   30.0845  -73.7408 H         1 UNK         0.0837 
     74 H74       -79.5787   30.0097  -71.9637 H         1 UNK         0.0685 
     75 H75       -79.0619   29.4787  -73.5512 H         1 UNK         0.0685 
     76 H76       -79.1138   26.9479  -70.8121 H         1 UNK         0.1434 
     77 H77       -74.8568   26.9123  -70.4068 H         1 UNK         0.1329 
     78 H78       -76.7316   29.8675  -72.8772 H         1 UNK         0.1335 
     79 H79       -73.5008   28.3213  -71.7033 H         1 UNK         0.0680 
     80 H80       -74.2062   29.0171  -73.1429 H         1 UNK         0.0680 
     81 H81       -71.8212   31.4246  -70.7817 H         1 UNK         0.1032 
     82 H82       -71.7086   29.8702  -71.5514 H         1 UNK         0.1032 
     83 H83       -72.3108   32.5166  -72.9745 H         1 UNK         0.0461 
     84 H84       -69.8585   30.4810  -74.4627 H         1 UNK         0.3453 
     85 H85       -68.5054   31.4005  -73.8461 H         1 UNK         0.3453 
     86 H86       -72.4755   29.8100  -73.9721 H         1 UNK         0.2984 
     87 H87       -73.8332   30.2981  -76.5949 H         1 UNK         0.0554 
     88 H88       -72.3843   29.8452  -78.5916 H         1 UNK         0.0847 
     89 H89       -71.0117   30.5740  -77.7589 H         1 UNK         0.0847 
     90 H90       -72.4116   31.5501  -78.1780 H         1 UNK         0.0847 
     91 H91       -73.2886   28.2143  -76.1725 H         1 UNK         0.3141 
     92 H92       -70.3723   26.3628  -75.8938 H         1 UNK         0.0743 
     93 H93       -70.2463   27.0801  -73.5123 H         1 UNK         0.0784 
     94 H94       -71.9963   26.9972  -73.3673 H         1 UNK         0.0784 
     95 H95       -71.0602   25.5297  -73.6411 H         1 UNK         0.0784 
     96 H96       -73.1325   25.8032  -75.2113 H         1 UNK         0.3213 
     97 H97       -74.3929   25.6538  -78.4609 H         1 UNK         0.0855 
     98 H98       -73.5694   23.1096  -76.9577 H         1 UNK         0.0814 
     99 H99       -73.1938   23.4753  -78.6360 H         1 UNK         0.0814 
    100 H100      -74.8629   23.2238  -78.1503 H         1 UNK         0.0814 
    101 H101      -75.4320   24.5350  -76.0635 H         1 UNK         0.3105 
    102 H102      -76.1630   27.4203  -74.2709 H         1 UNK         0.0547 
    103 H103      -77.9722   27.8519  -75.8703 H         1 UNK         0.0837 
    104 H104      -78.2460   26.1283  -76.0848 H         1 UNK         0.0837 
    105 H105      -78.6150   26.8954  -74.5430 H         1 UNK         0.0837 
    106 H106      -77.3135   24.8233  -74.0818 H         1 UNK         0.3020 
    107 H107      -74.5423   23.0833  -72.8970 H         1 UNK         0.1245 
    108 H108      -74.9290   24.4591  -70.7781 H         1 UNK         0.0781 
    109 H109      -75.3168   22.7741  -70.6954 H         1 UNK         0.0781 
    110 H110      -76.2323   25.5087  -68.9610 H         1 UNK         0.0836 
    111 H111      -77.9627   25.7141  -68.9426 H         1 UNK         0.0836 
    112 H112      -77.2594   22.4200  -72.6126 H         1 UNK         0.3022 
    113 H113      -77.3469   20.4309  -75.3370 H         1 UNK         0.0747 
    114 H114      -79.3511   20.1034  -73.9285 H         1 UNK         0.0793 
    115 H115      -77.9444   20.3238  -72.9095 H         1 UNK         0.0793 
    116 H116      -79.0970   21.6433  -73.1219 H         1 UNK         0.0793 
    117 H117      -78.8760   21.3353  -76.6627 H         1 UNK         0.3047 
    118 H118      -79.9162   22.9987  -77.8231 H         1 UNK         0.0822 
    119 H119      -81.5386   21.6183  -76.5374 H         1 UNK         0.0807 
    120 H120      -82.3899   22.9042  -77.3770 H         1 UNK         0.0807 
    121 H121      -82.0829   23.0321  -75.6458 H         1 UNK         0.0807 
    122 H122      -80.9093   25.2784  -76.1520 H         1 UNK         0.2946 
    123 H123      -79.6302   27.5940  -77.8535 H         1 UNK         0.1144 
    124 H124      -80.4769   27.4304  -80.1767 H         1 UNK         0.0793 
    125 H125      -81.3668   28.6694  -79.3117 H         1 UNK         0.0793 
    126 H126      -82.1035   27.0930  -79.5978 H         1 UNK         0.0793 
    127 H127      -82.3254   26.8142  -76.8465 H         1 UNK         0.2896 
@<TRIPOS>BOND
     1    1    2 1    
     2    1   67 1    
     3    1   68 1    
     4    1   69 1    
     5    2    3 2    
     6    2    4 am   BACKBONE|DICT|INTERRES
     7    4    5 1    
     8    4   70 1    
     9    5    6 1    
    10    5   65 1    
    11    5   71 1    
    12    6    7 1    
    13    6   72 1    
    14    6   73 1    
    15    7    8 1    
    16    8    9 1    
    17    8   74 1    
    18    8   75 1    
    19    9   10 ar   
    20    9   14 ar   
    21   10   11 ar   
    22   10   76 1    
    23   11   12 ar   
    24   11   48 1    
    25   12   13 ar   
    26   12   77 1    
    27   13   14 ar   
    28   13   15 1    
    29   14   78 1    
    30   15   16 1    
    31   15   79 1    
    32   15   80 1    
    33   16   17 1    
    34   17   18 1    
    35   17   81 1    
    36   17   82 1    
    37   18   19 1    
    38   18   22 1    
    39   18   83 1    
    40   19   20 am   BACKBONE|DICT|INTERRES
    41   19   21 2    
    42   20   84 1    
    43   20   85 1    
    44   22   23 am   BACKBONE|DICT|INTERRES
    45   22   86 1    
    46   23   24 2    
    47   23   25 1    
    48   25   26 1    
    49   25   27 1    
    50   25   87 1    
    51   26   88 1    
    52   26   89 1    
    53   26   90 1    
    54   27   28 am   BACKBONE|DICT|INTERRES
    55   27   91 1    
    56   28   29 2    
    57   28   30 1    
    58   30   31 1    
    59   30   32 1    
    60   30   92 1    
    61   31   93 1    
    62   31   94 1    
    63   31   95 1    
    64   32   33 am   BACKBONE|DICT|INTERRES
    65   32   96 1    
    66   33   34 2    
    67   33   35 1    
    68   35   36 1    
    69   35   37 1    
    70   35   97 1    
    71   36   98 1    
    72   36   99 1    
    73   36  100 1    
    74   37   38 am   BACKBONE|DICT|INTERRES
    75   37  101 1    
    76   38   39 2    
    77   38   40 1    
    78   40   41 1    
    79   40   42 1    
    80   40  102 1    
    81   41  103 1    
    82   41  104 1    
    83   41  105 1    
    84   42   43 am   BACKBONE|DICT|INTERRES
    85   42  106 1    
    86   43   44 2    
    87   43   45 1    
    88   45   46 1    
    89   45   49 1    
    90   45  107 1    
    91   46   47 1    
    92   46  108 1    
    93   46  109 1    
    94   47   48 1    
    95   48  110 1    
    96   48  111 1    
    97   49   50 am   BACKBONE|DICT|INTERRES
    98   49  112 1    
    99   50   51 2    
   100   50   52 1    
   101   52   53 1    
   102   52   54 1    
   103   52  113 1    
   104   53  114 1    
   105   53  115 1    
   106   53  116 1    
   107   54   55 am   BACKBONE|DICT|INTERRES
   108   54  117 1    
   109   55   56 2    
   110   55   57 1    
   111   57   58 1    
   112   57   59 1    
   113   57  118 1    
   114   58  119 1    
   115   58  120 1    
   116   58  121 1    
   117   59   60 am   BACKBONE|DICT|INTERRES
   118   59  122 1    
   119   60   61 2    
   120   60   62 1    
   121   62   63 1    
   122   62   64 1    
   123   62  123 1    
   124   63  124 1    
   125   63  125 1    
   126   63  126 1    
   127   64   65 am   BACKBONE|DICT|INTERRES
   128   64  127 1    
   129   65   66 2    
@<TRIPOS>SUBSTRUCTURE
     1 UNK         1 GROUP             0       ****    0 ROOT    
