@<TRIPOS>MOLECULE
3R135
127   129    1
SMALL
USER_CHARGES


@<TRIPOS>ATOM
      1 CA        -83.7985   24.7860  -73.4387 C.3       0 UNK        -0.1998 
      2 C         -82.3159   24.8627  -73.7673 C.2       0 UNK         0.4909 
      3 O         -81.9561   25.1441  -74.9097 O.2       0 UNK        -0.5240 
      4 N         -81.4503   24.6153  -72.7772 N.am      1 UNK        -0.4739 
      5 CA        -79.9885   24.6300  -72.9067 C.3       1 UNK         0.0864 
      6 C6        -79.2796   24.5480  -71.5295 C.3       11 UNK        -0.0881 
      7 S7        -79.9233   25.7594  -70.3242 S.3       11 UNK        -0.2682 
      8 C8        -78.4024   26.3886  -69.5443 C.3       11 UNK         0.0289 
      9 C9        -77.7495   27.5313  -70.3142 C.ar      11 UNK        -0.0687 
     10 C10       -78.4991   28.6462  -70.7071 C.ar      11 UNK        -0.0823 
     11 C11       -77.8833   29.7366  -71.3277 C.ar      11 UNK        -0.0830 
     12 C12       -76.5016   29.7143  -71.5404 C.ar      11 UNK        -0.1021 
     13 C13       -75.7415   28.6038  -71.1635 C.ar      11 UNK        -0.0753 
     14 C14       -76.3726   27.5121  -70.5586 C.ar      11 UNK        -0.0933 
     15 C15       -74.2338   28.6011  -71.3682 C.3       11 UNK         0.0166 
     16 S16       -73.7956   28.5153  -73.1300 S.3       11 UNK        -0.2615 
     17 C17       -73.1681   30.2041  -73.4431 C.3       11 UNK        -0.0865 
     18 CA        -72.5131   30.3624  -74.8433 C.3       10 UNK         0.0862 
     19 C         -71.9929   31.8112  -75.0688 C.2       10 UNK         0.5551 
     20 N         -70.7204   32.0198  -75.3841 N.am      10 UNK        -0.7319 
     21 O         -72.7596   32.7648  -74.9592 O.2       10 UNK        -0.5018 
     22 N         -71.5198   29.3076  -75.0899 N.am      10 UNK        -0.4509 
     23 C         -71.1870   28.7974  -76.2788 C.2       10 UNK         0.4899 
     24 O         -71.5934   29.2390  -77.3531 O.2       10 UNK        -0.4839 
     25 CA        -70.2879   27.5457  -76.2732 C.3       9 UNK         0.0222 
     26 CB        -68.7952   27.9263  -76.3229 C.3       9 UNK        -0.1966 
     27 N         -70.5853   26.6009  -75.1814 N.am      9 UNK        -0.4218 
     28 C         -70.3881   26.7482  -73.8612 C.2       9 UNK         0.5020 
     29 O         -69.8539   27.7356  -73.3537 O.2       9 UNK        -0.5274 
     30 CA        -70.9803   25.6514  -72.9658 C.3       8 UNK         0.0270 
     31 CB        -70.8600   25.9659  -71.4621 C.3       8 UNK        -0.1976 
     32 N         -72.3901   25.4896  -73.3144 N.am      8 UNK        -0.4313 
     33 C         -72.9981   24.3291  -73.5762 C.2       8 UNK         0.5041 
     34 O         -72.4537   23.2294  -73.4697 O.2       8 UNK        -0.5577 
     35 CA        -74.4568   24.3999  -74.0618 C.3       7 UNK         0.0284 
     36 CB        -75.4317   24.1799  -72.8945 C.3       7 UNK        -0.1958 
     37 N         -74.8138   25.6430  -74.7562 N.am      7 UNK        -0.4454 
     38 C         -74.3122   26.0454  -75.9339 C.2       7 UNK         0.5089 
     39 O         -73.4252   25.4374  -76.5339 O.2       7 UNK        -0.5125 
     40 CA        -74.8916   27.3345  -76.5455 C.3       6 UNK         0.0408 
     41 CB        -75.1186   27.2007  -78.0626 C.3       6 UNK        -0.1791 
     42 N         -76.1441   27.7416  -75.9021 N.am      6 UNK        -0.4762 
     43 C         -76.5206   29.0052  -75.6665 C.2       6 UNK         0.5007 
     44 O         -75.8545   29.9899  -75.9874 O.2       6 UNK        -0.5032 
     45 CA        -77.9085   29.1928  -75.0171 C.3       5 UNK         0.0783 
     46 C46       -78.1192   30.6313  -74.4796 C.3       11 UNK        -0.0857 
     47 S47       -79.5395   30.7135  -73.3394 S.3       11 UNK        -0.2512 
     48 C48       -78.7073   30.9511  -71.7350 C.3       11 UNK         0.0225 
     49 N         -78.9448   28.8319  -75.9893 N.am      5 UNK        -0.4615 
     50 C         -79.2901   27.5833  -76.3145 C.2       4 UNK         0.5053 
     51 O         -78.8585   26.5816  -75.7307 O.2       4 UNK        -0.5105 
     52 CA        -80.1945   27.4322  -77.5452 C.3       4 UNK         0.0263 
     53 CB        -79.3296   27.5987  -78.8153 C.3       4 UNK        -0.1981 
     54 N         -80.7987   26.1063  -77.4716 N.am      4 UNK        -0.4224 
     55 C         -81.4586   25.4020  -78.3983 C.2       3 UNK         0.4895 
     56 O         -81.8064   25.8439  -79.4948 O.2       3 UNK        -0.5091 
     57 CA        -81.7708   23.9379  -78.0174 C.3       3 UNK         0.0250 
     58 CB        -81.9717   23.0212  -79.2432 C.3       3 UNK        -0.1996 
     59 N         -80.7769   23.3813  -77.0839 N.am      3 UNK        -0.4254 
     60 C         -79.4640   23.1958  -77.3021 C.2       2 UNK         0.5004 
     61 O         -78.9210   23.3257  -78.4003 O.2       2 UNK        -0.5226 
     62 CA        -78.6179   22.8736  -76.0581 C.3       2 UNK         0.0269 
     63 CB        -77.1041   22.9384  -76.3283 C.3       2 UNK        -0.1926 
     64 N         -78.9523   23.8132  -74.9832 N.am      2 UNK        -0.4687 
     65 C         -79.5402   23.4771  -73.8298 C.2       1 UNK         0.5165 
     66 O         -79.7756   22.3134  -73.4968 O.2       1 UNK        -0.5079 
     67 H67       -83.9716   24.5358  -72.3922 H         1 UNK         0.0900 
     68 H68       -84.2794   24.0266  -74.0545 H         1 UNK         0.0900 
     69 H69       -84.2763   25.7437  -73.6428 H         1 UNK         0.0900 
     70 H70       -81.7967   24.3874  -71.8564 H         1 UNK         0.2959 
     71 H71       -79.7117   25.5807  -73.3680 H         1 UNK         0.1079 
     72 H72       -79.3959   23.5556  -71.0889 H         1 UNK         0.0837 
     73 H73       -78.2068   24.7022  -71.6547 H         1 UNK         0.0837 
     74 H74       -78.6564   26.7551  -68.5489 H         1 UNK         0.0685 
     75 H75       -77.7058   25.5622  -69.3939 H         1 UNK         0.0685 
     76 H76       -79.5631   28.6721  -70.5149 H         1 UNK         0.1434 
     77 H77       -76.0116   30.5634  -71.9953 H         1 UNK         0.1329 
     78 H78       -75.7843   26.6614  -70.2430 H         1 UNK         0.1335 
     79 H79       -73.7810   27.7480  -70.8608 H         1 UNK         0.0680 
     80 H80       -73.8020   29.4904  -70.9072 H         1 UNK         0.0680 
     81 H81       -72.4472   30.4577  -72.6636 H         1 UNK         0.1032 
     82 H82       -73.9993   30.9031  -73.3357 H         1 UNK         0.1032 
     83 H83       -73.3035   30.2302  -75.5819 H         1 UNK         0.0461 
     84 H84       -70.3923   32.9613  -75.5311 H         1 UNK         0.3453 
     85 H85       -70.0890   31.2408  -75.4795 H         1 UNK         0.3453 
     86 H86       -71.0807   28.9019  -74.2691 H         1 UNK         0.2984 
     87 H87       -70.5144   27.0008  -77.1912 H         1 UNK         0.0554 
     88 H88       -68.1614   27.0408  -76.3683 H         1 UNK         0.0847 
     89 H89       -68.4900   28.5133  -75.4565 H         1 UNK         0.0847 
     90 H90       -68.5785   28.5251  -77.2085 H         1 UNK         0.0847 
     91 H91       -71.0970   25.7777  -75.4741 H         1 UNK         0.3141 
     92 H92       -70.4222   24.7363  -73.1749 H         1 UNK         0.0743 
     93 H93       -71.2849   25.1657  -70.8560 H         1 UNK         0.0784 
     94 H94       -69.8154   26.0762  -71.1682 H         1 UNK         0.0784 
     95 H95       -71.3735   26.8922  -71.2016 H         1 UNK         0.0784 
     96 H96       -72.9177   26.3464  -73.4349 H         1 UNK         0.3213 
     97 H97       -74.5806   23.5817  -74.7727 H         1 UNK         0.0855 
     98 H98       -75.3867   24.9946  -72.1710 H         1 UNK         0.0814 
     99 H99       -75.2022   23.2562  -72.3613 H         1 UNK         0.0814 
    100 H100      -76.4579   24.0981  -73.2507 H         1 UNK         0.0814 
    101 H101      -75.4839   26.2430  -74.2984 H         1 UNK         0.3105 
    102 H102      -74.1373   28.1044  -76.3795 H         1 UNK         0.0547 
    103 H103      -74.1911   26.9516  -78.5796 H         1 UNK         0.0837 
    104 H104      -75.8440   26.4192  -78.2920 H         1 UNK         0.0837 
    105 H105      -75.4831   28.1337  -78.4923 H         1 UNK         0.0837 
    106 H106      -76.8169   27.0069  -75.7078 H         1 UNK         0.3020 
    107 H107      -77.9542   28.5063  -74.1673 H         1 UNK         0.1245 
    108 H108      -78.2868   31.3311  -75.3002 H         1 UNK         0.0781 
    109 H109      -77.2301   30.9959  -73.9638 H         1 UNK         0.0781 
    110 H110      -79.4633   31.1504  -70.9739 H         1 UNK         0.0836 
    111 H111      -78.0823   31.8446  -71.7774 H         1 UNK         0.0836 
    112 H112      -79.3255   29.5969  -76.5270 H         1 UNK         0.3022 
    113 H113      -80.9841   28.1847  -77.5148 H         1 UNK         0.0747 
    114 H114      -79.9357   27.6127  -79.7204 H         1 UNK         0.0793 
    115 H115      -78.7742   28.5374  -78.8006 H         1 UNK         0.0793 
    116 H116      -78.6010   26.7922  -78.9118 H         1 UNK         0.0793 
    117 H117      -80.6513   25.6557  -76.5739 H         1 UNK         0.3047 
    118 H118      -82.7144   23.9675  -77.4704 H         1 UNK         0.0822 
    119 H119      -82.8147   23.3584  -79.8476 H         1 UNK         0.0807 
    120 H120      -82.1806   21.9949  -78.9416 H         1 UNK         0.0807 
    121 H121      -81.0948   23.0100  -79.8910 H         1 UNK         0.0807 
    122 H122      -81.1005   23.2984  -76.1287 H         1 UNK         0.2946 
    123 H123      -78.8642   21.8474  -75.7756 H         1 UNK         0.1144 
    124 H124      -76.7808   23.9479  -76.5854 H         1 UNK         0.0793 
    125 H125      -76.8196   22.2807  -77.1506 H         1 UNK         0.0793 
    126 H126      -76.5453   22.6125  -75.4527 H         1 UNK         0.0793 
    127 H127      -78.8458   24.8007  -75.2099 H         1 UNK         0.2896 
@<TRIPOS>BOND
     1    1    2 1    
     2    1   67 1    
     3    1   68 1    
     4    1   69 1    
     5    2    3 2    
     6    2    4 am   BACKBONE|DICT|INTERRES
     7    4    5 1    
     8    4   70 1    
     9    5    6 1    
    10    5   65 1    
    11    5   71 1    
    12    6    7 1    
    13    6   72 1    
    14    6   73 1    
    15    7    8 1    
    16    8    9 1    
    17    8   74 1    
    18    8   75 1    
    19    9   10 ar   
    20    9   14 ar   
    21   10   11 ar   
    22   10   76 1    
    23   11   12 ar   
    24   11   48 1    
    25   12   13 ar   
    26   12   77 1    
    27   13   14 ar   
    28   13   15 1    
    29   14   78 1    
    30   15   16 1    
    31   15   79 1    
    32   15   80 1    
    33   16   17 1    
    34   17   18 1    
    35   17   81 1    
    36   17   82 1    
    37   18   19 1    
    38   18   22 1    
    39   18   83 1    
    40   19   20 am   BACKBONE|DICT|INTERRES
    41   19   21 2    
    42   20   84 1    
    43   20   85 1    
    44   22   23 am   BACKBONE|DICT|INTERRES
    45   22   86 1    
    46   23   24 2    
    47   23   25 1    
    48   25   26 1    
    49   25   27 1    
    50   25   87 1    
    51   26   88 1    
    52   26   89 1    
    53   26   90 1    
    54   27   28 am   BACKBONE|DICT|INTERRES
    55   27   91 1    
    56   28   29 2    
    57   28   30 1    
    58   30   31 1    
    59   30   32 1    
    60   30   92 1    
    61   31   93 1    
    62   31   94 1    
    63   31   95 1    
    64   32   33 am   BACKBONE|DICT|INTERRES
    65   32   96 1    
    66   33   34 2    
    67   33   35 1    
    68   35   36 1    
    69   35   37 1    
    70   35   97 1    
    71   36   98 1    
    72   36   99 1    
    73   36  100 1    
    74   37   38 am   BACKBONE|DICT|INTERRES
    75   37  101 1    
    76   38   39 2    
    77   38   40 1    
    78   40   41 1    
    79   40   42 1    
    80   40  102 1    
    81   41  103 1    
    82   41  104 1    
    83   41  105 1    
    84   42   43 am   BACKBONE|DICT|INTERRES
    85   42  106 1    
    86   43   44 2    
    87   43   45 1    
    88   45   46 1    
    89   45   49 1    
    90   45  107 1    
    91   46   47 1    
    92   46  108 1    
    93   46  109 1    
    94   47   48 1    
    95   48  110 1    
    96   48  111 1    
    97   49   50 am   BACKBONE|DICT|INTERRES
    98   49  112 1    
    99   50   51 2    
   100   50   52 1    
   101   52   53 1    
   102   52   54 1    
   103   52  113 1    
   104   53  114 1    
   105   53  115 1    
   106   53  116 1    
   107   54   55 am   BACKBONE|DICT|INTERRES
   108   54  117 1    
   109   55   56 2    
   110   55   57 1    
   111   57   58 1    
   112   57   59 1    
   113   57  118 1    
   114   58  119 1    
   115   58  120 1    
   116   58  121 1    
   117   59   60 am   BACKBONE|DICT|INTERRES
   118   59  122 1    
   119   60   61 2    
   120   60   62 1    
   121   62   63 1    
   122   62   64 1    
   123   62  123 1    
   124   63  124 1    
   125   63  125 1    
   126   63  126 1    
   127   64   65 am   BACKBONE|DICT|INTERRES
   128   64  127 1    
   129   65   66 2    
@<TRIPOS>SUBSTRUCTURE
     1 UNK         1 GROUP             0       ****    0 ROOT    
