@<TRIPOS>MOLECULE
3R135
127   129    1
SMALL
USER_CHARGES


@<TRIPOS>ATOM
      1 CA        -84.8607   30.3641  -76.9814 C.3       0 UNK        -0.1998 
      2 C         -84.2819   29.3053  -76.0544 C.2       0 UNK         0.4909 
      3 O         -85.0427   28.5709  -75.4248 O.2       0 UNK        -0.5240 
      4 N         -82.9454   29.2357  -75.9694 N.am      1 UNK        -0.4739 
      5 CA        -82.1582   28.2768  -75.1852 C.3       1 UNK         0.0864 
      6 C6        -82.3878   28.3955  -73.6533 C.3       11 UNK        -0.0881 
      7 S7        -81.0046   27.6556  -72.7204 S.3       11 UNK        -0.2682 
      8 C8        -80.0993   29.1308  -72.1446 C.3       11 UNK         0.0289 
      9 C9        -78.6361   28.8227  -71.8446 C.ar      11 UNK        -0.0687 
     10 C10       -78.2879   27.7531  -71.0135 C.ar      11 UNK        -0.0823 
     11 C11       -76.9467   27.4416  -70.7755 C.ar      11 UNK        -0.0830 
     12 C12       -75.9443   28.2275  -71.3507 C.ar      11 UNK        -0.1021 
     13 C13       -76.2770   29.3040  -72.1776 C.ar      11 UNK        -0.0753 
     14 C14       -77.6232   29.6004  -72.4153 C.ar      11 UNK        -0.0933 
     15 C15       -75.1868   30.1011  -72.8774 C.3       11 UNK         0.0166 
     16 S16       -74.4400   31.3552  -71.7927 S.3       11 UNK        -0.2615 
     17 C17       -72.8497   30.5771  -71.3349 C.3       11 UNK        -0.0865 
     18 CA        -71.6729   31.0902  -72.2226 C.3       10 UNK         0.0862 
     19 C         -70.2426   30.7771  -71.6776 C.2       10 UNK         0.5551 
     20 N         -70.0791   30.4791  -70.3946 N.am      10 UNK        -0.7319 
     21 O         -69.2559   30.8694  -72.4060 O.2       10 UNK        -0.5018 
     22 N         -71.8538   30.7213  -73.6391 N.am      10 UNK        -0.4509 
     23 C         -71.7023   29.4974  -74.1660 C.2       10 UNK         0.4899 
     24 O         -71.3263   28.5146  -73.5236 O.2       10 UNK        -0.4839 
     25 CA        -72.0932   29.3691  -75.6518 C.3       9 UNK         0.0222 
     26 CB        -71.2031   30.2355  -76.5695 C.3       9 UNK        -0.1966 
     27 N         -72.1615   27.9757  -76.1119 N.am      9 UNK        -0.4218 
     28 C         -71.1573   27.1174  -76.3506 C.2       9 UNK         0.5020 
     29 O         -69.9627   27.4165  -76.3042 O.2       9 UNK        -0.5274 
     30 CA        -71.5340   25.6624  -76.7025 C.3       8 UNK         0.0270 
     31 CB        -71.1968   24.7286  -75.5285 C.3       8 UNK        -0.1976 
     32 N         -72.9414   25.4748  -77.0726 N.am      8 UNK        -0.4313 
     33 C         -73.4903   25.8751  -78.2283 C.2       8 UNK         0.5041 
     34 O         -72.8533   26.3980  -79.1434 O.2       8 UNK        -0.5577 
     35 CA        -75.0127   25.6939  -78.3760 C.3       7 UNK         0.0284 
     36 CB        -75.3542   24.2748  -78.8577 C.3       7 UNK        -0.1958 
     37 N         -75.7452   25.9822  -77.1398 N.am      7 UNK        -0.4454 
     38 C         -75.7886   27.1795  -76.5376 C.2       7 UNK         0.5089 
     39 O         -75.2559   28.1950  -76.9837 O.2       7 UNK        -0.5125 
     40 CA        -76.4938   27.2390  -75.1757 C.3       6 UNK         0.0408 
     41 CB        -78.0188   27.3383  -75.3355 C.3       6 UNK        -0.1791 
     42 N         -76.1334   26.0945  -74.3343 N.am      6 UNK        -0.4762 
     43 C         -74.9253   25.9355  -73.7704 C.2       6 UNK         0.5007 
     44 O         -74.0273   26.7702  -73.8548 O.2       6 UNK        -0.5032 
     45 CA        -74.6372   24.6085  -73.0381 C.3       5 UNK         0.0783 
     46 C46       -74.7983   24.7203  -71.5015 C.3       11 UNK        -0.0857 
     47 S47       -76.5258   24.7122  -70.9038 S.3       11 UNK        -0.2512 
     48 C48       -76.5944   26.2405  -69.9137 C.3       11 UNK         0.0225 
     49 N         -75.3759   23.4776  -73.6051 N.am      5 UNK        -0.4615 
     50 C         -75.1357   22.9523  -74.8137 C.2       4 UNK         0.5053 
     51 O         -74.2309   23.3343  -75.5548 O.2       4 UNK        -0.5105 
     52 CA        -76.1100   21.8650  -75.2999 C.3       4 UNK         0.0263 
     53 CB        -75.7121   20.4900  -74.7413 C.3       4 UNK        -0.1981 
     54 N         -77.5064   22.1583  -74.9539 N.am      4 UNK        -0.4224 
     55 C         -78.1718   23.2397  -75.3821 C.2       3 UNK         0.4895 
     56 O         -77.6824   24.0810  -76.1397 O.2       3 UNK        -0.5091 
     57 CA        -79.5790   23.4549  -74.8027 C.3       3 UNK         0.0250 
     58 CB        -79.4852   24.0203  -73.3740 C.3       3 UNK        -0.1996 
     59 N         -80.3540   24.3898  -75.6175 N.am      3 UNK        -0.4254 
     60 C         -80.9207   24.1096  -76.7982 C.2       2 UNK         0.5004 
     61 O         -80.9191   22.9826  -77.2968 O.2       2 UNK        -0.5226 
     62 CA        -81.5809   25.2748  -77.5718 C.3       2 UNK         0.0269 
     63 CB        -82.9702   24.8868  -78.1220 C.3       2 UNK        -0.1926 
     64 N         -81.6415   26.5591  -76.8492 N.am      2 UNK        -0.4687 
     65 C         -82.3274   26.8396  -75.7291 C.2       1 UNK         0.5165 
     66 O         -83.0451   26.0270  -75.1436 O.2       1 UNK        -0.5079 
     67 H67       -85.4966   31.0476  -76.4192 H         1 UNK         0.0900 
     68 H68       -85.4668   29.8938  -77.7554 H         1 UNK         0.0900 
     69 H69       -84.0827   30.9504  -77.4701 H         1 UNK         0.0900 
     70 H70       -82.3979   29.8766  -76.5278 H         1 UNK         0.2959 
     71 H71       -81.1192   28.5578  -75.3683 H         1 UNK         0.1079 
     72 H72       -82.4879   29.4434  -73.3669 H         1 UNK         0.0837 
     73 H73       -83.3216   27.9188  -73.3498 H         1 UNK         0.0837 
     74 H74       -80.5798   29.5224  -71.2471 H         1 UNK         0.0685 
     75 H75       -80.1691   29.9107  -72.9045 H         1 UNK         0.0685 
     76 H76       -79.0649   27.1419  -70.5750 H         1 UNK         0.1434 
     77 H77       -74.9044   27.9844  -71.1836 H         1 UNK         0.1329 
     78 H78       -77.8807   30.4244  -73.0665 H         1 UNK         0.1335 
     79 H79       -74.4267   29.4184  -73.2556 H         1 UNK         0.0680 
     80 H80       -75.5946   30.6043  -73.7553 H         1 UNK         0.0680 
     81 H81       -72.9264   29.4893  -71.3762 H         1 UNK         0.1032 
     82 H82       -72.6872   30.8294  -70.2867 H         1 UNK         0.1032 
     83 H83       -71.7170   32.1799  -72.2084 H         1 UNK         0.0461 
     84 H84       -69.1472   30.3040  -70.0522 H         1 UNK         0.3453 
     85 H85       -70.8607   30.4205  -69.7625 H         1 UNK         0.3453 
     86 H86       -72.1441   31.4751  -74.2441 H         1 UNK         0.2984 
     87 H87       -73.1155   29.7412  -75.7358 H         1 UNK         0.0554 
     88 H88       -71.4489   30.0824  -77.6204 H         1 UNK         0.0847 
     89 H89       -70.1436   30.0146  -76.4367 H         1 UNK         0.0847 
     90 H90       -71.3360   31.2973  -76.3615 H         1 UNK         0.0847 
     91 H91       -73.0982   27.5950  -76.1430 H         1 UNK         0.3141 
     92 H92       -70.9206   25.3671  -77.5563 H         1 UNK         0.0743 
     93 H93       -71.7527   25.0008  -74.6313 H         1 UNK         0.0784 
     94 H94       -71.4232   23.6889  -75.7658 H         1 UNK         0.0784 
     95 H95       -70.1358   24.7810  -75.2805 H         1 UNK         0.0784 
     96 H96       -73.5221   24.9603  -76.4156 H         1 UNK         0.3213 
     97 H97       -75.3560   26.4019  -79.1334 H         1 UNK         0.0855 
     98 H98       -75.0406   23.5165  -78.1401 H         1 UNK         0.0814 
     99 H99       -74.8572   24.0544  -79.8032 H         1 UNK         0.0814 
    100 H100      -76.4262   24.1579  -79.0186 H         1 UNK         0.0814 
    101 H101      -76.2666   25.2152  -76.7204 H         1 UNK         0.3105 
    102 H102      -76.1571   28.1454  -74.6741 H         1 UNK         0.0547 
    103 H103      -78.2920   28.2754  -75.8216 H         1 UNK         0.0837 
    104 H104      -78.4238   26.5311  -75.9434 H         1 UNK         0.0837 
    105 H105      -78.5177   27.3184  -74.3678 H         1 UNK         0.0837 
    106 H106      -76.8046   25.3446  -74.2643 H         1 UNK         0.3020 
    107 H107      -73.5787   24.4073  -73.2172 H         1 UNK         0.1245 
    108 H108      -74.2711   25.6000  -71.1285 H         1 UNK         0.0781 
    109 H109      -74.2987   23.8714  -71.0324 H         1 UNK         0.0781 
    110 H110      -75.6507   26.4001  -69.3900 H         1 UNK         0.0836 
    111 H111      -77.3490   26.1161  -69.1355 H         1 UNK         0.0836 
    112 H112      -76.1383   23.1186  -73.0492 H         1 UNK         0.3022 
    113 H113      -76.0396   21.8246  -76.3891 H         1 UNK         0.0747 
    114 H114      -76.3413   19.6988  -75.1494 H         1 UNK         0.0793 
    115 H115      -74.6808   20.2477  -75.0024 H         1 UNK         0.0793 
    116 H116      -75.7898   20.4545  -73.6538 H         1 UNK         0.0793 
    117 H117      -77.9676   21.5124  -74.3289 H         1 UNK         0.3047 
    118 H118      -80.0998   22.4953  -74.7764 H         1 UNK         0.0822 
    119 H119      -78.9584   23.3353  -72.7086 H         1 UNK         0.0807 
    120 H120      -80.4756   24.1810  -72.9470 H         1 UNK         0.0807 
    121 H121      -78.9556   24.9737  -73.3443 H         1 UNK         0.0807 
    122 H122      -80.4048   25.3401  -75.2859 H         1 UNK         0.2946 
    123 H123      -80.9306   25.4489  -78.4309 H         1 UNK         0.1144 
    124 H124      -82.9020   24.0251  -78.7873 H         1 UNK         0.0793 
    125 H125      -83.4117   25.7014  -78.6961 H         1 UNK         0.0793 
    126 H126      -83.6649   24.6230  -77.3242 H         1 UNK         0.0793 
    127 H127      -81.0914   27.3010  -77.2608 H         1 UNK         0.2896 
@<TRIPOS>BOND
     1    1    2 1    
     2    1   67 1    
     3    1   68 1    
     4    1   69 1    
     5    2    3 2    
     6    2    4 am   BACKBONE|DICT|INTERRES
     7    4    5 1    
     8    4   70 1    
     9    5    6 1    
    10    5   65 1    
    11    5   71 1    
    12    6    7 1    
    13    6   72 1    
    14    6   73 1    
    15    7    8 1    
    16    8    9 1    
    17    8   74 1    
    18    8   75 1    
    19    9   10 ar   
    20    9   14 ar   
    21   10   11 ar   
    22   10   76 1    
    23   11   12 ar   
    24   11   48 1    
    25   12   13 ar   
    26   12   77 1    
    27   13   14 ar   
    28   13   15 1    
    29   14   78 1    
    30   15   16 1    
    31   15   79 1    
    32   15   80 1    
    33   16   17 1    
    34   17   18 1    
    35   17   81 1    
    36   17   82 1    
    37   18   19 1    
    38   18   22 1    
    39   18   83 1    
    40   19   20 am   BACKBONE|DICT|INTERRES
    41   19   21 2    
    42   20   84 1    
    43   20   85 1    
    44   22   23 am   BACKBONE|DICT|INTERRES
    45   22   86 1    
    46   23   24 2    
    47   23   25 1    
    48   25   26 1    
    49   25   27 1    
    50   25   87 1    
    51   26   88 1    
    52   26   89 1    
    53   26   90 1    
    54   27   28 am   BACKBONE|DICT|INTERRES
    55   27   91 1    
    56   28   29 2    
    57   28   30 1    
    58   30   31 1    
    59   30   32 1    
    60   30   92 1    
    61   31   93 1    
    62   31   94 1    
    63   31   95 1    
    64   32   33 am   BACKBONE|DICT|INTERRES
    65   32   96 1    
    66   33   34 2    
    67   33   35 1    
    68   35   36 1    
    69   35   37 1    
    70   35   97 1    
    71   36   98 1    
    72   36   99 1    
    73   36  100 1    
    74   37   38 am   BACKBONE|DICT|INTERRES
    75   37  101 1    
    76   38   39 2    
    77   38   40 1    
    78   40   41 1    
    79   40   42 1    
    80   40  102 1    
    81   41  103 1    
    82   41  104 1    
    83   41  105 1    
    84   42   43 am   BACKBONE|DICT|INTERRES
    85   42  106 1    
    86   43   44 2    
    87   43   45 1    
    88   45   46 1    
    89   45   49 1    
    90   45  107 1    
    91   46   47 1    
    92   46  108 1    
    93   46  109 1    
    94   47   48 1    
    95   48  110 1    
    96   48  111 1    
    97   49   50 am   BACKBONE|DICT|INTERRES
    98   49  112 1    
    99   50   51 2    
   100   50   52 1    
   101   52   53 1    
   102   52   54 1    
   103   52  113 1    
   104   53  114 1    
   105   53  115 1    
   106   53  116 1    
   107   54   55 am   BACKBONE|DICT|INTERRES
   108   54  117 1    
   109   55   56 2    
   110   55   57 1    
   111   57   58 1    
   112   57   59 1    
   113   57  118 1    
   114   58  119 1    
   115   58  120 1    
   116   58  121 1    
   117   59   60 am   BACKBONE|DICT|INTERRES
   118   59  122 1    
   119   60   61 2    
   120   60   62 1    
   121   62   63 1    
   122   62   64 1    
   123   62  123 1    
   124   63  124 1    
   125   63  125 1    
   126   63  126 1    
   127   64   65 am   BACKBONE|DICT|INTERRES
   128   64  127 1    
   129   65   66 2    
@<TRIPOS>SUBSTRUCTURE
     1 UNK         1 GROUP             0       ****    0 ROOT    
