@<TRIPOS>MOLECULE
3R135
127   129    1
SMALL
USER_CHARGES


@<TRIPOS>ATOM
      1 CA        -83.9688   25.9320  -74.8222 C.3       0 UNK        -0.1998 
      2 C         -82.7741   26.5105  -75.5645 C.2       0 UNK         0.4909 
      3 O         -82.8558   26.7454  -76.7702 O.2       0 UNK        -0.5240 
      4 N         -81.6598   26.7330  -74.8545 N.am      1 UNK        -0.4739 
      5 CA        -80.4014   27.2813  -75.3756 C.3       1 UNK         0.0864 
      6 C6        -79.5267   27.8287  -74.2174 C.3       11 UNK        -0.0881 
      7 S7        -78.4007   29.1691  -74.7286 S.3       11 UNK        -0.2682 
      8 C8        -78.0780   29.9999  -73.1343 C.3       11 UNK         0.0289 
      9 C9        -77.1039   29.2135  -72.2656 C.ar      11 UNK        -0.0687 
     10 C10       -77.5379   28.0873  -71.5622 C.ar      11 UNK        -0.0823 
     11 C11       -76.6365   27.3139  -70.8273 C.ar      11 UNK        -0.0830 
     12 C12       -75.3043   27.7251  -70.7206 C.ar      11 UNK        -0.1021 
     13 C13       -74.8618   28.8673  -71.3950 C.ar      11 UNK        -0.0753 
     14 C14       -75.7631   29.5993  -72.1753 C.ar      11 UNK        -0.0933 
     15 C15       -73.4029   29.2885  -71.3182 C.3       11 UNK         0.0166 
     16 S16       -73.1901   30.7479  -70.2543 S.3       11 UNK        -0.2615 
     17 C17       -71.3779   30.9639  -70.3077 C.3       11 UNK        -0.0865 
     18 CA        -70.9323   32.2082  -71.1335 C.3       10 UNK         0.0862 
     19 C         -69.4202   32.5443  -70.9386 C.2       10 UNK         0.5551 
     20 N         -68.7290   33.0823  -71.9365 N.am      10 UNK        -0.7319 
     21 O         -68.8692   32.3474  -69.8579 O.2       10 UNK        -0.5018 
     22 N         -71.3772   32.1702  -72.5417 N.am      10 UNK        -0.4509 
     23 C         -71.0143   31.2630  -73.4572 C.2       10 UNK         0.4899 
     24 O         -70.2577   30.3151  -73.2345 O.2       10 UNK        -0.4839 
     25 CA        -71.5614   31.4745  -74.8765 C.3       9 UNK         0.0222 
     26 CB        -70.5693   32.2957  -75.7166 C.3       9 UNK        -0.1966 
     27 N         -71.7787   30.1796  -75.5211 N.am      9 UNK        -0.4218 
     28 C         -72.9124   29.4750  -75.4337 C.2       9 UNK         0.5020 
     29 O         -73.9420   29.8935  -74.9006 O.2       9 UNK        -0.5274 
     30 CA        -72.8602   28.0425  -75.9955 C.3       8 UNK         0.0270 
     31 CB        -72.3070   27.0815  -74.9296 C.3       8 UNK        -0.1976 
     32 N         -74.1696   27.5556  -76.4365 N.am      8 UNK        -0.4313 
     33 C         -74.8860   28.0748  -77.4447 C.2       8 UNK         0.5041 
     34 O         -74.4797   28.9858  -78.1702 O.2       8 UNK        -0.5577 
     35 CA        -76.2848   27.4675  -77.6852 C.3       7 UNK         0.0284 
     36 CB        -76.8703   27.8144  -79.0707 C.3       7 UNK        -0.1958 
     37 N         -76.3423   26.0220  -77.4404 N.am      7 UNK        -0.4454 
     38 C         -75.6297   25.0607  -78.0490 C.2       7 UNK         0.5089 
     39 O         -74.8493   25.2685  -78.9791 O.2       7 UNK        -0.5125 
     40 CA        -75.8235   23.6209  -77.5229 C.3       6 UNK         0.0408 
     41 CB        -74.5650   22.7508  -77.7269 C.3       6 UNK        -0.1791 
     42 N         -76.2794   23.5436  -76.1243 N.am      6 UNK        -0.4762 
     43 C         -75.6479   24.0461  -75.0499 C.2       6 UNK         0.5007 
     44 O         -74.6000   24.6881  -75.1332 O.2       6 UNK        -0.5032 
     45 CA        -76.2968   23.8256  -73.6676 C.3       5 UNK         0.0783 
     46 C46       -75.9334   24.9615  -72.6721 C.3       11 UNK        -0.0857 
     47 S47       -76.2361   24.5373  -70.9163 S.3       11 UNK        -0.2512 
     48 C48       -77.0988   25.9949  -70.2210 C.3       11 UNK         0.0225 
     49 N         -77.7495   23.6658  -73.7993 N.am      5 UNK        -0.4615 
     50 C         -78.4764   22.7507  -73.1479 C.2       4 UNK         0.5053 
     51 O         -77.9958   21.8256  -72.4930 O.2       4 UNK        -0.5105 
     52 CA        -80.0006   22.9114  -73.2111 C.3       4 UNK         0.0263 
     53 CB        -80.4459   24.1761  -72.4558 C.3       4 UNK        -0.1981 
     54 N         -80.4993   22.9592  -74.5855 N.am      4 UNK        -0.4224 
     55 C         -80.9135   21.8866  -75.2749 C.2       3 UNK         0.4895 
     56 O         -80.8413   20.7315  -74.8541 O.2       3 UNK        -0.5091 
     57 CA        -81.5578   22.1360  -76.6508 C.3       3 UNK         0.0250 
     58 CB        -83.0904   22.1200  -76.5291 C.3       3 UNK        -0.1996 
     59 N         -81.1422   23.3993  -77.2637 N.am      3 UNK        -0.4254 
     60 C         -79.9757   23.5761  -77.8970 C.2       2 UNK         0.5004 
     61 O         -79.1424   22.6863  -78.0600 O.2       2 UNK        -0.5226 
     62 CA        -79.6775   24.9969  -78.4016 C.3       2 UNK         0.0269 
     63 CB        -80.3089   25.2279  -79.7832 C.3       2 UNK        -0.1926 
     64 N         -80.1335   26.0379  -77.4745 N.am      2 UNK        -0.4687 
     65 C         -79.6725   26.2213  -76.2302 C.2       1 UNK         0.5165 
     66 O         -78.7678   25.5407  -75.7376 O.2       1 UNK        -0.5079 
     67 H67       -84.7188   26.7060  -74.6626 H         1 UNK         0.0900 
     68 H68       -84.4261   25.1335  -75.4052 H         1 UNK         0.0900 
     69 H69       -83.6864   25.5231  -73.8523 H         1 UNK         0.0900 
     70 H70       -81.6673   26.5263  -73.8663 H         1 UNK         0.2959 
     71 H71       -80.6558   28.1179  -76.0311 H         1 UNK         0.1079 
     72 H72       -78.9490   27.0386  -73.7371 H         1 UNK         0.0837 
     73 H73       -80.1731   28.2396  -73.4403 H         1 UNK         0.0837 
     74 H74       -79.0145   30.1601  -72.5982 H         1 UNK         0.0685 
     75 H75       -77.6753   30.9929  -73.3397 H         1 UNK         0.0685 
     76 H76       -78.5727   27.7842  -71.6227 H         1 UNK         0.1434 
     77 H77       -74.6060   27.1302  -70.1477 H         1 UNK         0.1329 
     78 H78       -75.4134   30.4664  -72.7190 H         1 UNK         0.1335 
     79 H79       -72.7884   28.4707  -70.9385 H         1 UNK         0.0680 
     80 H80       -73.0376   29.5093  -72.3205 H         1 UNK         0.0680 
     81 H81       -71.0490   31.0606  -69.2715 H         1 UNK         0.1032 
     82 H82       -70.8985   30.0579  -70.6813 H         1 UNK         0.1032 
     83 H83       -71.4469   33.0682  -70.7032 H         1 UNK         0.0461 
     84 H84       -67.7561   33.3069  -71.7991 H         1 UNK         0.3453 
     85 H85       -69.1697   33.2623  -72.8236 H         1 UNK         0.3453 
     86 H86       -71.9902   32.9229  -72.8207 H         1 UNK         0.2984 
     87 H87       -72.5047   32.0226  -74.8214 H         1 UNK         0.0554 
     88 H88       -70.4128   33.2841  -75.2827 H         1 UNK         0.0847 
     89 H89       -70.9387   32.4454  -76.7314 H         1 UNK         0.0847 
     90 H90       -69.5942   31.8109  -75.7832 H         1 UNK         0.0847 
     91 H91       -70.9612   29.7361  -75.9154 H         1 UNK         0.3141 
     92 H92       -72.1939   28.0322  -76.8605 H         1 UNK         0.0743 
     93 H93       -71.3277   27.4050  -74.5739 H         1 UNK         0.0784 
     94 H94       -72.1890   26.0732  -75.3274 H         1 UNK         0.0784 
     95 H95       -72.9659   27.0237  -74.0616 H         1 UNK         0.0784 
     96 H96       -74.5573   26.7787  -75.9151 H         1 UNK         0.3213 
     97 H97       -76.9331   27.9236  -76.9376 H         1 UNK         0.0855 
     98 H98       -76.2565   27.4192  -79.8805 H         1 UNK         0.0814 
     99 H99       -76.9333   28.8944  -79.2087 H         1 UNK         0.0814 
    100 H100      -77.8785   27.4185  -79.1871 H         1 UNK         0.0814 
    101 H101      -76.9680   25.7313  -76.6955 H         1 UNK         0.3105 
    102 H102      -76.6157   23.1864  -78.1309 H         1 UNK         0.0547 
    103 H103      -74.7219   21.7345  -77.3661 H         1 UNK         0.0837 
    104 H104      -73.6996   23.1626  -77.2067 H         1 UNK         0.0837 
    105 H105      -74.3038   22.6793  -78.7833 H         1 UNK         0.0837 
    106 H106      -77.1536   23.0575  -75.9749 H         1 UNK         0.3020 
    107 H107      -75.8540   22.8974  -73.2995 H         1 UNK         0.1245 
    108 H108      -76.4741   25.8635  -72.9579 H         1 UNK         0.0781 
    109 H109      -74.8744   25.2201  -72.7255 H         1 UNK         0.0781 
    110 H110      -76.9414   26.0196  -69.1419 H         1 UNK         0.0836 
    111 H111      -78.1710   25.8574  -70.3689 H         1 UNK         0.0836 
    112 H112      -78.2143   24.3671  -74.3705 H         1 UNK         0.3022 
    113 H113      -80.4437   22.0557  -72.6961 H         1 UNK         0.0747 
    114 H114      -81.5325   24.2589  -72.4297 H         1 UNK         0.0793 
    115 H115      -80.0996   24.1511  -71.4215 H         1 UNK         0.0793 
    116 H116      -80.0482   25.0839  -72.9069 H         1 UNK         0.0793 
    117 H117      -80.5430   23.8628  -75.0306 H         1 UNK         0.3047 
    118 H118      -81.2614   21.3137  -77.3063 H         1 UNK         0.0822 
    119 H119      -83.5683   22.2485  -77.5005 H         1 UNK         0.0807 
    120 H120      -83.4527   22.9075  -75.8679 H         1 UNK         0.0807 
    121 H121      -83.4388   21.1695  -76.1224 H         1 UNK         0.0807 
    122 H122      -81.7784   24.1814  -77.1976 H         1 UNK         0.2946 
    123 H123      -78.5972   25.0808  -78.5098 H         1 UNK         0.1144 
    124 H124      -80.0277   26.1994  -80.1898 H         1 UNK         0.0793 
    125 H125      -81.3980   25.1833  -79.7440 H         1 UNK         0.0793 
    126 H126      -79.9760   24.4718  -80.4958 H         1 UNK         0.0793 
    127 H127      -80.9480   26.5731  -77.7538 H         1 UNK         0.2896 
@<TRIPOS>BOND
     1    1    2 1    
     2    1   67 1    
     3    1   68 1    
     4    1   69 1    
     5    2    3 2    
     6    2    4 am   BACKBONE|DICT|INTERRES
     7    4    5 1    
     8    4   70 1    
     9    5    6 1    
    10    5   65 1    
    11    5   71 1    
    12    6    7 1    
    13    6   72 1    
    14    6   73 1    
    15    7    8 1    
    16    8    9 1    
    17    8   74 1    
    18    8   75 1    
    19    9   10 ar   
    20    9   14 ar   
    21   10   11 ar   
    22   10   76 1    
    23   11   12 ar   
    24   11   48 1    
    25   12   13 ar   
    26   12   77 1    
    27   13   14 ar   
    28   13   15 1    
    29   14   78 1    
    30   15   16 1    
    31   15   79 1    
    32   15   80 1    
    33   16   17 1    
    34   17   18 1    
    35   17   81 1    
    36   17   82 1    
    37   18   19 1    
    38   18   22 1    
    39   18   83 1    
    40   19   20 am   BACKBONE|DICT|INTERRES
    41   19   21 2    
    42   20   84 1    
    43   20   85 1    
    44   22   23 am   BACKBONE|DICT|INTERRES
    45   22   86 1    
    46   23   24 2    
    47   23   25 1    
    48   25   26 1    
    49   25   27 1    
    50   25   87 1    
    51   26   88 1    
    52   26   89 1    
    53   26   90 1    
    54   27   28 am   BACKBONE|DICT|INTERRES
    55   27   91 1    
    56   28   29 2    
    57   28   30 1    
    58   30   31 1    
    59   30   32 1    
    60   30   92 1    
    61   31   93 1    
    62   31   94 1    
    63   31   95 1    
    64   32   33 am   BACKBONE|DICT|INTERRES
    65   32   96 1    
    66   33   34 2    
    67   33   35 1    
    68   35   36 1    
    69   35   37 1    
    70   35   97 1    
    71   36   98 1    
    72   36   99 1    
    73   36  100 1    
    74   37   38 am   BACKBONE|DICT|INTERRES
    75   37  101 1    
    76   38   39 2    
    77   38   40 1    
    78   40   41 1    
    79   40   42 1    
    80   40  102 1    
    81   41  103 1    
    82   41  104 1    
    83   41  105 1    
    84   42   43 am   BACKBONE|DICT|INTERRES
    85   42  106 1    
    86   43   44 2    
    87   43   45 1    
    88   45   46 1    
    89   45   49 1    
    90   45  107 1    
    91   46   47 1    
    92   46  108 1    
    93   46  109 1    
    94   47   48 1    
    95   48  110 1    
    96   48  111 1    
    97   49   50 am   BACKBONE|DICT|INTERRES
    98   49  112 1    
    99   50   51 2    
   100   50   52 1    
   101   52   53 1    
   102   52   54 1    
   103   52  113 1    
   104   53  114 1    
   105   53  115 1    
   106   53  116 1    
   107   54   55 am   BACKBONE|DICT|INTERRES
   108   54  117 1    
   109   55   56 2    
   110   55   57 1    
   111   57   58 1    
   112   57   59 1    
   113   57  118 1    
   114   58  119 1    
   115   58  120 1    
   116   58  121 1    
   117   59   60 am   BACKBONE|DICT|INTERRES
   118   59  122 1    
   119   60   61 2    
   120   60   62 1    
   121   62   63 1    
   122   62   64 1    
   123   62  123 1    
   124   63  124 1    
   125   63  125 1    
   126   63  126 1    
   127   64   65 am   BACKBONE|DICT|INTERRES
   128   64  127 1    
   129   65   66 2    
@<TRIPOS>SUBSTRUCTURE
     1 UNK         1 GROUP             0       ****    0 ROOT    
