@<TRIPOS>MOLECULE
3R135
127   129    1
SMALL
USER_CHARGES


@<TRIPOS>ATOM
      1 CA        -81.7225   21.2373  -72.0110 C.3       0 UNK        -0.1998 
      2 C         -81.1953   22.6589  -72.1257 C.2       0 UNK         0.4909 
      3 O         -80.1905   22.8826  -72.8041 O.2       0 UNK        -0.5240 
      4 N         -81.8802   23.6239  -71.4912 N.am      1 UNK        -0.4739 
      5 CA        -81.5681   25.0642  -71.3967 C.3       1 UNK         0.0864 
      6 C6        -80.2320   25.3430  -70.6197 C.3       11 UNK        -0.0881 
      7 S7        -78.9708   26.4194  -71.3998 S.3       11 UNK        -0.2682 
      8 C8        -79.3369   28.0076  -70.5946 C.3       11 UNK         0.0289 
      9 C9        -78.7698   29.1786  -71.3826 C.ar      11 UNK        -0.0687 
     10 C10       -79.4691   29.6678  -72.4896 C.ar      11 UNK        -0.0823 
     11 C11       -78.9892   30.7694  -73.2045 C.ar      11 UNK        -0.0830 
     12 C12       -77.8027   31.3858  -72.7997 C.ar      11 UNK        -0.1021 
     13 C13       -77.0916   30.9050  -71.6965 C.ar      11 UNK        -0.0753 
     14 C14       -77.5762   29.7962  -70.9930 C.ar      11 UNK        -0.0933 
     15 C15       -75.8199   31.6144  -71.2552 C.3       11 UNK         0.0166 
     16 S16       -74.3743   31.0754  -72.2189 S.3       11 UNK        -0.2615 
     17 C17       -73.9642   29.5092  -71.3806 C.3       11 UNK        -0.0865 
     18 CA        -72.5486   28.9935  -71.7510 C.3       10 UNK         0.0862 
     19 C         -72.1093   27.8467  -70.7929 C.2       10 UNK         0.5551 
     20 N         -71.8933   26.6227  -71.2543 N.am      10 UNK        -0.7319 
     21 O         -71.9547   28.0806  -69.5965 O.2       10 UNK        -0.5018 
     22 N         -72.4501   28.6959  -73.1889 N.am      10 UNK        -0.4509 
     23 C         -71.3163   28.5369  -73.8800 C.2       10 UNK         0.4899 
     24 O         -70.1869   28.6158  -73.3922 O.2       10 UNK        -0.4839 
     25 CA        -71.4897   28.2527  -75.3858 C.3       9 UNK         0.0222 
     26 CB        -70.3782   28.9235  -76.2133 C.3       9 UNK        -0.1966 
     27 N         -71.5769   26.8389  -75.7826 N.am      9 UNK        -0.4218 
     28 C         -71.9774   25.7596  -75.0937 C.2       9 UNK         0.5020 
     29 O         -72.2286   25.7410  -73.8896 O.2       9 UNK        -0.5274 
     30 CA        -72.1606   24.4700  -75.9172 C.3       8 UNK         0.0270 
     31 CB        -72.6460   23.2759  -75.0714 C.3       8 UNK        -0.1976 
     32 N         -73.0823   24.6561  -77.0440 N.am      8 UNK        -0.4313 
     33 C         -72.7423   25.1931  -78.2217 C.2       8 UNK         0.5041 
     34 O         -71.6465   25.7159  -78.4340 O.2       8 UNK        -0.5577 
     35 CA        -73.7726   25.1242  -79.3513 C.3       7 UNK         0.0284 
     36 CB        -74.0724   23.6663  -79.7471 C.3       7 UNK        -0.1958 
     37 N         -75.0220   25.8106  -79.0152 N.am      7 UNK        -0.4454 
     38 C         -75.6906   26.5813  -79.8841 C.2       7 UNK         0.5089 
     39 O         -75.2624   26.8919  -80.9971 O.2       7 UNK        -0.5125 
     40 CA        -77.0959   27.0553  -79.4860 C.3       6 UNK         0.0408 
     41 CB        -78.1331   25.9704  -79.8187 C.3       6 UNK        -0.1791 
     42 N         -77.2373   27.4294  -78.0820 N.am      6 UNK        -0.4762 
     43 C         -76.7494   28.5464  -77.5231 C.2       6 UNK         0.5007 
     44 O         -76.0020   29.3383  -78.0978 O.2       6 UNK        -0.5032 
     45 CA        -77.2020   28.8164  -76.0758 C.3       5 UNK         0.0783 
     46 C46       -78.6954   29.2453  -76.0238 C.3       11 UNK        -0.0857 
     47 S47       -78.8784   31.0577  -75.9758 S.3       11 UNK        -0.2512 
     48 C48       -79.7635   31.3057  -74.4016 C.3       11 UNK         0.0225 
     49 N         -76.9528   27.6269  -75.2661 N.am      5 UNK        -0.4615 
     50 C         -75.7740   27.3205  -74.7120 C.2       4 UNK         0.5053 
     51 O         -74.8099   28.0838  -74.6929 O.2       4 UNK        -0.5105 
     52 CA        -75.6310   25.9227  -74.0869 C.3       4 UNK         0.0263 
     53 CB        -75.5195   26.0075  -72.5580 C.3       4 UNK        -0.1981 
     54 N         -76.7063   25.0048  -74.4716 N.am      4 UNK        -0.4224 
     55 C         -76.7694   24.3977  -75.6663 C.2       3 UNK         0.4895 
     56 O         -75.9089   24.5123  -76.5423 O.2       3 UNK        -0.5091 
     57 CA        -78.0255   23.5614  -75.9519 C.3       3 UNK         0.0250 
     58 CB        -77.8519   22.1315  -75.4178 C.3       3 UNK        -0.1996 
     59 N         -79.2543   24.1454  -75.4028 N.am      3 UNK        -0.4254 
     60 C         -79.7760   25.3223  -75.7913 C.2       2 UNK         0.5004 
     61 O         -79.2308   26.0594  -76.6113 O.2       2 UNK        -0.5226 
     62 CA        -81.0948   25.7823  -75.1537 C.3       2 UNK         0.0269 
     63 CB        -82.2939   25.3968  -76.0343 C.3       2 UNK        -0.1926 
     64 N         -81.2519   25.2128  -73.8212 N.am      2 UNK        -0.4687 
     65 C         -81.7294   25.8251  -72.7378 C.2       1 UNK         0.5165 
     66 O         -82.2601   26.9370  -72.7561 O.2       1 UNK        -0.5079 
     67 H67       -81.9689   20.8485  -72.9986 H         1 UNK         0.0900 
     68 H68       -80.9629   20.5921  -71.5707 H         1 UNK         0.0900 
     69 H69       -82.6167   21.1815  -71.3905 H         1 UNK         0.0900 
     70 H70       -82.7198   23.3547  -70.9961 H         1 UNK         0.2959 
     71 H71       -82.3701   25.4640  -70.7733 H         1 UNK         0.1079 
     72 H72       -80.4706   25.7537  -69.6373 H         1 UNK         0.0837 
     73 H73       -79.7220   24.4053  -70.3948 H         1 UNK         0.0837 
     74 H74       -80.4177   28.1289  -70.5037 H         1 UNK         0.0685 
     75 H75       -78.9403   27.9964  -69.5782 H         1 UNK         0.0685 
     76 H76       -80.3917   29.1881  -72.7889 H         1 UNK         0.1434 
     77 H77       -77.4309   32.2418  -73.3467 H         1 UNK         0.1329 
     78 H78       -77.0340   29.4249  -70.1343 H         1 UNK         0.1335 
     79 H79       -75.6402   31.4624  -70.1898 H         1 UNK         0.0680 
     80 H80       -75.9424   32.6905  -71.3872 H         1 UNK         0.0680 
     81 H81       -74.0402   29.6739  -70.3040 H         1 UNK         0.1032 
     82 H82       -74.7242   28.7681  -71.6319 H         1 UNK         0.1032 
     83 H83       -71.8473   29.8074  -71.5568 H         1 UNK         0.0461 
     84 H84       -71.6044   25.8985  -70.6177 H         1 UNK         0.3453 
     85 H85       -72.0181   26.4063  -72.2432 H         1 UNK         0.3453 
     86 H86       -73.3323   28.5644  -73.6802 H         1 UNK         0.2984 
     87 H87       -72.4300   28.7122  -75.6943 H         1 UNK         0.0554 
     88 H88       -70.2833   29.9803  -75.9595 H         1 UNK         0.0847 
     89 H89       -70.5867   28.8665  -77.2819 H         1 UNK         0.0847 
     90 H90       -69.4084   28.4569  -76.0358 H         1 UNK         0.0847 
     91 H91       -71.4216   26.6642  -76.7726 H         1 UNK         0.3141 
     92 H92       -71.1755   24.2066  -76.3088 H         1 UNK         0.0743 
     93 H93       -71.9711   23.0883  -74.2351 H         1 UNK         0.0784 
     94 H94       -73.6400   23.4439  -74.6569 H         1 UNK         0.0784 
     95 H95       -72.6835   22.3621  -75.6645 H         1 UNK         0.0784 
     96 H96       -74.0407   24.3445  -76.9066 H         1 UNK         0.3213 
     97 H97       -73.3011   25.6059  -80.2110 H         1 UNK         0.0855 
     98 H98       -74.6022   23.1308  -78.9582 H         1 UNK         0.0814 
     99 H99       -73.1522   23.1187  -79.9557 H         1 UNK         0.0814 
    100 H100      -74.6853   23.6217  -80.6475 H         1 UNK         0.0814 
    101 H101      -75.4400   25.5949  -78.1142 H         1 UNK         0.3105 
    102 H102      -77.3287   27.9359  -80.0886 H         1 UNK         0.0547 
    103 H103      -79.1483   26.3217  -79.6330 H         1 UNK         0.0837 
    104 H104      -78.0768   25.6827  -80.8695 H         1 UNK         0.0837 
    105 H105      -77.9786   25.0693  -79.2237 H         1 UNK         0.0837 
    106 H106      -77.8781   26.8593  -77.5319 H         1 UNK         0.3020 
    107 H107      -76.5838   29.6262  -75.6791 H         1 UNK         0.1245 
    108 H108      -79.1811   28.8198  -75.1458 H         1 UNK         0.0781 
    109 H109      -79.2742   28.8620  -76.8669 H         1 UNK         0.0781 
    110 H110      -80.7471   30.8381  -74.4702 H         1 UNK         0.0836 
    111 H111      -79.9435   32.3726  -74.2623 H         1 UNK         0.0836 
    112 H112      -77.6822   26.9284  -75.2689 H         1 UNK         0.3022 
    113 H113      -74.7022   25.5012  -74.4612 H         1 UNK         0.0747 
    114 H114      -76.2837   26.6530  -72.1290 H         1 UNK         0.0793 
    115 H115      -75.5920   25.0264  -72.0889 H         1 UNK         0.0793 
    116 H116      -74.5544   26.4265  -72.2754 H         1 UNK         0.0793 
    117 H117      -77.4539   24.8619  -73.8067 H         1 UNK         0.3047 
    118 H118      -78.1402   23.5085  -77.0367 H         1 UNK         0.0822 
    119 H119      -76.9494   21.6696  -75.8212 H         1 UNK         0.0807 
    120 H120      -78.6929   21.4982  -75.7006 H         1 UNK         0.0807 
    121 H121      -77.7713   22.1130  -74.3299 H         1 UNK         0.0807 
    122 H122      -79.7216   23.5948  -74.6928 H         1 UNK         0.2946 
    123 H123      -81.0488   26.8714  -75.0777 H         1 UNK         0.1144 
    124 H124      -83.2265   25.7817  -75.6215 H         1 UNK         0.0793 
    125 H125      -82.3913   24.3149  -76.1317 H         1 UNK         0.0793 
    126 H126      -82.1888   25.8093  -77.0388 H         1 UNK         0.0793 
    127 H127      -80.8195   24.3098  -73.6434 H         1 UNK         0.2896 
@<TRIPOS>BOND
     1    1    2 1    
     2    1   67 1    
     3    1   68 1    
     4    1   69 1    
     5    2    3 2    
     6    2    4 am   BACKBONE|DICT|INTERRES
     7    4    5 1    
     8    4   70 1    
     9    5    6 1    
    10    5   65 1    
    11    5   71 1    
    12    6    7 1    
    13    6   72 1    
    14    6   73 1    
    15    7    8 1    
    16    8    9 1    
    17    8   74 1    
    18    8   75 1    
    19    9   10 ar   
    20    9   14 ar   
    21   10   11 ar   
    22   10   76 1    
    23   11   12 ar   
    24   11   48 1    
    25   12   13 ar   
    26   12   77 1    
    27   13   14 ar   
    28   13   15 1    
    29   14   78 1    
    30   15   16 1    
    31   15   79 1    
    32   15   80 1    
    33   16   17 1    
    34   17   18 1    
    35   17   81 1    
    36   17   82 1    
    37   18   19 1    
    38   18   22 1    
    39   18   83 1    
    40   19   20 am   BACKBONE|DICT|INTERRES
    41   19   21 2    
    42   20   84 1    
    43   20   85 1    
    44   22   23 am   BACKBONE|DICT|INTERRES
    45   22   86 1    
    46   23   24 2    
    47   23   25 1    
    48   25   26 1    
    49   25   27 1    
    50   25   87 1    
    51   26   88 1    
    52   26   89 1    
    53   26   90 1    
    54   27   28 am   BACKBONE|DICT|INTERRES
    55   27   91 1    
    56   28   29 2    
    57   28   30 1    
    58   30   31 1    
    59   30   32 1    
    60   30   92 1    
    61   31   93 1    
    62   31   94 1    
    63   31   95 1    
    64   32   33 am   BACKBONE|DICT|INTERRES
    65   32   96 1    
    66   33   34 2    
    67   33   35 1    
    68   35   36 1    
    69   35   37 1    
    70   35   97 1    
    71   36   98 1    
    72   36   99 1    
    73   36  100 1    
    74   37   38 am   BACKBONE|DICT|INTERRES
    75   37  101 1    
    76   38   39 2    
    77   38   40 1    
    78   40   41 1    
    79   40   42 1    
    80   40  102 1    
    81   41  103 1    
    82   41  104 1    
    83   41  105 1    
    84   42   43 am   BACKBONE|DICT|INTERRES
    85   42  106 1    
    86   43   44 2    
    87   43   45 1    
    88   45   46 1    
    89   45   49 1    
    90   45  107 1    
    91   46   47 1    
    92   46  108 1    
    93   46  109 1    
    94   47   48 1    
    95   48  110 1    
    96   48  111 1    
    97   49   50 am   BACKBONE|DICT|INTERRES
    98   49  112 1    
    99   50   51 2    
   100   50   52 1    
   101   52   53 1    
   102   52   54 1    
   103   52  113 1    
   104   53  114 1    
   105   53  115 1    
   106   53  116 1    
   107   54   55 am   BACKBONE|DICT|INTERRES
   108   54  117 1    
   109   55   56 2    
   110   55   57 1    
   111   57   58 1    
   112   57   59 1    
   113   57  118 1    
   114   58  119 1    
   115   58  120 1    
   116   58  121 1    
   117   59   60 am   BACKBONE|DICT|INTERRES
   118   59  122 1    
   119   60   61 2    
   120   60   62 1    
   121   62   63 1    
   122   62   64 1    
   123   62  123 1    
   124   63  124 1    
   125   63  125 1    
   126   63  126 1    
   127   64   65 am   BACKBONE|DICT|INTERRES
   128   64  127 1    
   129   65   66 2    
@<TRIPOS>SUBSTRUCTURE
     1 UNK         1 GROUP             0       ****    0 ROOT    
