@<TRIPOS>MOLECULE
3R135
127   129    1
SMALL
USER_CHARGES


@<TRIPOS>ATOM
      1 CA        -85.7586   28.0852  -72.4800 C.3       0 UNK        -0.1998 
      2 C         -84.6053   27.2035  -72.9358 C.2       0 UNK         0.4909 
      3 O         -84.5865   26.7670  -74.0876 O.2       0 UNK        -0.5240 
      4 N         -83.6395   26.9469  -72.0449 N.am      1 UNK        -0.4739 
      5 CA        -82.4845   26.0781  -72.2940 C.3       1 UNK         0.0864 
      6 C6        -81.3609   26.3041  -71.2516 C.3       11 UNK        -0.0881 
      7 S7        -80.5097   27.8972  -71.4903 S.3       11 UNK        -0.2682 
      8 C8        -79.2965   27.4153  -72.7587 C.3       11 UNK         0.0289 
      9 C9        -78.2048   28.4594  -72.9177 C.ar      11 UNK        -0.0687 
     10 C10       -78.3659   29.5246  -73.8080 C.ar      11 UNK        -0.0823 
     11 C11       -77.3319   30.4464  -73.9994 C.ar      11 UNK        -0.0830 
     12 C12       -76.1359   30.2977  -73.2912 C.ar      11 UNK        -0.1021 
     13 C13       -75.9684   29.2447  -72.3854 C.ar      11 UNK        -0.0753 
     14 C14       -77.0120   28.3334  -72.2007 C.ar      11 UNK        -0.0933 
     15 C15       -74.6429   29.0231  -71.6656 C.3       11 UNK         0.0166 
     16 S16       -73.8782   30.5493  -71.0344 S.3       11 UNK        -0.2615 
     17 C17       -72.2630   29.9052  -70.4793 C.3       11 UNK        -0.0865 
     18 CA        -71.1459   30.1006  -71.5397 C.3       10 UNK         0.0862 
     19 C         -69.7358   29.8754  -70.9195 C.2       10 UNK         0.5551 
     20 N         -68.9423   28.9204  -71.3912 N.am      10 UNK        -0.7319 
     21 O         -69.3495   30.5909  -69.9985 O.2       10 UNK        -0.5018 
     22 N         -71.3884   29.2912  -72.7473 N.am      10 UNK        -0.4509 
     23 C         -71.0588   29.6485  -73.9921 C.2       10 UNK         0.4899 
     24 O         -70.5931   30.7522  -74.2784 O.2       10 UNK        -0.4839 
     25 CA        -71.2594   28.6223  -75.1265 C.3       9 UNK         0.0222 
     26 CB        -69.9205   27.9555  -75.4972 C.3       9 UNK        -0.1966 
     27 N         -72.3055   27.6039  -74.9394 N.am      9 UNK        -0.4218 
     28 C         -72.3815   26.6147  -74.0357 C.2       9 UNK         0.5020 
     29 O         -71.6177   26.5021  -73.0762 O.2       9 UNK        -0.5274 
     30 CA        -73.4917   25.5665  -74.2342 C.3       8 UNK         0.0270 
     31 CB        -74.8141   26.0225  -73.6024 C.3       8 UNK        -0.1976 
     32 N         -73.7253   25.2369  -75.6401 N.am      8 UNK        -0.4313 
     33 C         -72.8745   24.5569  -76.4208 C.2       8 UNK         0.5041 
     34 O         -71.7899   24.1154  -76.0392 O.2       8 UNK        -0.5577 
     35 CA        -73.3106   24.3316  -77.8757 C.3       7 UNK         0.0284 
     36 CB        -74.3391   23.1913  -77.9712 C.3       7 UNK        -0.1958 
     37 N         -73.8671   25.5532  -78.4585 N.am      7 UNK        -0.4454 
     38 C         -73.1290   26.5457  -78.9747 C.2       7 UNK         0.5089 
     39 O         -71.9023   26.5083  -79.0721 O.2       7 UNK        -0.5125 
     40 CA        -73.8804   27.7944  -79.4749 C.3       6 UNK         0.0408 
     41 CB        -74.1418   27.6904  -80.9858 C.3       6 UNK        -0.1791 
     42 N         -75.1485   28.0421  -78.7823 N.am      6 UNK        -0.4762 
     43 C         -75.2540   28.3937  -77.4921 C.2       6 UNK         0.5007 
     44 O         -74.2884   28.5291  -76.7412 O.2       6 UNK        -0.5032 
     45 CA        -76.6848   28.5395  -76.9305 C.3       5 UNK         0.0783 
     46 C46       -77.3149   29.9159  -77.2667 C.3       11 UNK        -0.0857 
     47 S47       -76.4751   31.3324  -76.4790 S.3       11 UNK        -0.2512 
     48 C48       -77.4892   31.5913  -74.9884 C.3       11 UNK         0.0225 
     49 N         -77.5678   27.4451  -77.3561 N.am      5 UNK        -0.4615 
     50 C         -77.3412   26.1431  -77.1435 C.2       4 UNK         0.5053 
     51 O         -76.3299   25.7031  -76.5929 O.2       4 UNK        -0.5105 
     52 CA        -78.3799   25.1655  -77.7124 C.3       4 UNK         0.0263 
     53 CB        -78.0328   24.8168  -79.1693 C.3       4 UNK        -0.1981 
     54 N         -78.4333   23.9317  -76.9273 N.am      4 UNK        -0.4224 
     55 C         -78.9534   23.8439  -75.6978 C.2       3 UNK         0.4895 
     56 O         -79.5218   24.7751  -75.1171 O.2       3 UNK        -0.5091 
     57 CA        -78.7886   22.4905  -74.9861 C.3       3 UNK         0.0250 
     58 CB        -77.4195   22.4213  -74.2880 C.3       3 UNK        -0.1996 
     59 N         -79.8444   22.3313  -73.9878 N.am      3 UNK        -0.4254 
     60 C         -81.1071   21.9830  -74.2736 C.2       2 UNK         0.5004 
     61 O         -81.4689   21.4916  -75.3430 O.2       2 UNK        -0.5226 
     62 CA        -82.1467   22.3575  -73.2150 C.3       2 UNK         0.0269 
     63 CB        -81.9516   21.5602  -71.9091 C.3       2 UNK        -0.1926 
     64 N         -82.0260   23.7984  -72.9967 N.am      2 UNK        -0.4687 
     65 C         -82.8811   24.5877  -72.3409 C.2       1 UNK         0.5165 
     66 O         -83.9004   24.1853  -71.7735 O.2       1 UNK        -0.5079 
     67 H67       -85.8250   28.9718  -73.1099 H         1 UNK         0.0900 
     68 H68       -85.6388   28.4115  -71.4471 H         1 UNK         0.0900 
     69 H69       -86.6994   27.5408  -72.5566 H         1 UNK         0.0900 
     70 H70       -83.7120   27.3211  -71.1098 H         1 UNK         0.2959 
     71 H71       -82.0950   26.3285  -73.2838 H         1 UNK         0.1079 
     72 H72       -81.7668   26.2731  -70.2387 H         1 UNK         0.0837 
     73 H73       -80.6102   25.5119  -71.2872 H         1 UNK         0.0837 
     74 H74       -79.8073   27.2626  -73.7107 H         1 UNK         0.0685 
     75 H75       -78.8464   26.4555  -72.4996 H         1 UNK         0.0685 
     76 H76       -79.2888   29.6227  -74.3633 H         1 UNK         0.1434 
     77 H77       -75.3268   30.9944  -73.4633 H         1 UNK         0.1329 
     78 H78       -76.8859   27.5025  -71.5200 H         1 UNK         0.1335 
     79 H79       -73.9594   28.5504  -72.3680 H         1 UNK         0.0680 
     80 H80       -74.7694   28.3292  -70.8330 H         1 UNK         0.0680 
     81 H81       -72.0142   30.4386  -69.5597 H         1 UNK         0.1032 
     82 H82       -72.3513   28.8543  -70.1978 H         1 UNK         0.1032 
     83 H83       -71.1640   31.1539  -71.8266 H         1 UNK         0.0461 
     84 H84       -69.2540   28.3230  -72.1401 H         1 UNK         0.3453 
     85 H85       -68.0297   28.7890  -70.9841 H         1 UNK         0.3453 
     86 H86       -71.6672   28.3253  -72.6031 H         1 UNK         0.2984 
     87 H87       -71.5838   29.1989  -75.9942 H         1 UNK         0.0554 
     88 H88       -70.0277   27.3180  -76.3753 H         1 UNK         0.0847 
     89 H89       -69.5322   27.3418  -74.6839 H         1 UNK         0.0847 
     90 H90       -69.1614   28.7032  -75.7310 H         1 UNK         0.0847 
     91 H91       -73.0569   27.6695  -75.6240 H         1 UNK         0.3141 
     92 H92       -73.1742   24.6526  -73.7276 H         1 UNK         0.0743 
     93 H93       -74.6932   26.2059  -72.5347 H         1 UNK         0.0784 
     94 H94       -75.1830   26.9395  -74.0637 H         1 UNK         0.0784 
     95 H95       -75.5891   25.2637  -73.7125 H         1 UNK         0.0784 
     96 H96       -74.6285   25.5092  -76.0270 H         1 UNK         0.3213 
     97 H97       -72.4289   24.0348  -78.4485 H         1 UNK         0.0855 
     98 H98       -75.2458   23.4068  -77.4058 H         1 UNK         0.0814 
     99 H99       -73.9247   22.2631  -77.5755 H         1 UNK         0.0814 
    100 H100      -74.6255   23.0017  -79.0057 H         1 UNK         0.0814 
    101 H101      -74.8627   25.6942  -78.3619 H         1 UNK         0.3105 
    102 H102      -73.2321   28.6560  -79.3011 H         1 UNK         0.0547 
    103 H103      -74.8036   26.8573  -81.2262 H         1 UNK         0.0837 
    104 H104      -74.5930   28.6030  -81.3755 H         1 UNK         0.0837 
    105 H105      -73.2107   27.5339  -81.5326 H         1 UNK         0.0837 
    106 H106      -75.9945   27.9357  -79.3235 H         1 UNK         0.3020 
    107 H107      -76.5967   28.4568  -75.8452 H         1 UNK         0.1245 
    108 H108      -78.3625   29.9303  -76.9622 H         1 UNK         0.0781 
    109 H109      -77.3218   30.0812  -78.3457 H         1 UNK         0.0781 
    110 H110      -77.1812   32.5222  -74.5100 H         1 UNK         0.0836 
    111 H111      -78.5339   31.7271  -75.2725 H         1 UNK         0.0836 
    112 H112      -78.4135   27.7164  -77.8364 H         1 UNK         0.3022 
    113 H113      -79.3645   25.6376  -77.6843 H         1 UNK         0.0747 
    114 H114      -78.0142   25.7104  -79.7947 H         1 UNK         0.0793 
    115 H115      -78.7706   24.1399  -79.6006 H         1 UNK         0.0793 
    116 H116      -77.0545   24.3412  -79.2515 H         1 UNK         0.0793 
    117 H117      -77.9566   23.1304  -77.3135 H         1 UNK         0.3047 
    118 H118      -78.8585   21.6851  -75.7207 H         1 UNK         0.0822 
    119 H119      -76.6057   22.5243  -75.0073 H         1 UNK         0.0807 
    120 H120      -77.2819   21.4675  -73.7784 H         1 UNK         0.0807 
    121 H121      -77.3008   23.2164  -73.5506 H         1 UNK         0.0807 
    122 H122      -79.6561   22.7319  -73.0807 H         1 UNK         0.2946 
    123 H123      -83.1385   22.1437  -73.6201 H         1 UNK         0.1144 
    124 H124      -81.9523   20.4872  -72.1052 H         1 UNK         0.0793 
    125 H125      -82.7558   21.7551  -71.1997 H         1 UNK         0.0793 
    126 H126      -81.0096   21.8030  -71.4166 H         1 UNK         0.0793 
    127 H127      -81.2466   24.2313  -73.4794 H         1 UNK         0.2896 
@<TRIPOS>BOND
     1    1    2 1    
     2    1   67 1    
     3    1   68 1    
     4    1   69 1    
     5    2    3 2    
     6    2    4 am   BACKBONE|DICT|INTERRES
     7    4    5 1    
     8    4   70 1    
     9    5    6 1    
    10    5   65 1    
    11    5   71 1    
    12    6    7 1    
    13    6   72 1    
    14    6   73 1    
    15    7    8 1    
    16    8    9 1    
    17    8   74 1    
    18    8   75 1    
    19    9   10 ar   
    20    9   14 ar   
    21   10   11 ar   
    22   10   76 1    
    23   11   12 ar   
    24   11   48 1    
    25   12   13 ar   
    26   12   77 1    
    27   13   14 ar   
    28   13   15 1    
    29   14   78 1    
    30   15   16 1    
    31   15   79 1    
    32   15   80 1    
    33   16   17 1    
    34   17   18 1    
    35   17   81 1    
    36   17   82 1    
    37   18   19 1    
    38   18   22 1    
    39   18   83 1    
    40   19   20 am   BACKBONE|DICT|INTERRES
    41   19   21 2    
    42   20   84 1    
    43   20   85 1    
    44   22   23 am   BACKBONE|DICT|INTERRES
    45   22   86 1    
    46   23   24 2    
    47   23   25 1    
    48   25   26 1    
    49   25   27 1    
    50   25   87 1    
    51   26   88 1    
    52   26   89 1    
    53   26   90 1    
    54   27   28 am   BACKBONE|DICT|INTERRES
    55   27   91 1    
    56   28   29 2    
    57   28   30 1    
    58   30   31 1    
    59   30   32 1    
    60   30   92 1    
    61   31   93 1    
    62   31   94 1    
    63   31   95 1    
    64   32   33 am   BACKBONE|DICT|INTERRES
    65   32   96 1    
    66   33   34 2    
    67   33   35 1    
    68   35   36 1    
    69   35   37 1    
    70   35   97 1    
    71   36   98 1    
    72   36   99 1    
    73   36  100 1    
    74   37   38 am   BACKBONE|DICT|INTERRES
    75   37  101 1    
    76   38   39 2    
    77   38   40 1    
    78   40   41 1    
    79   40   42 1    
    80   40  102 1    
    81   41  103 1    
    82   41  104 1    
    83   41  105 1    
    84   42   43 am   BACKBONE|DICT|INTERRES
    85   42  106 1    
    86   43   44 2    
    87   43   45 1    
    88   45   46 1    
    89   45   49 1    
    90   45  107 1    
    91   46   47 1    
    92   46  108 1    
    93   46  109 1    
    94   47   48 1    
    95   48  110 1    
    96   48  111 1    
    97   49   50 am   BACKBONE|DICT|INTERRES
    98   49  112 1    
    99   50   51 2    
   100   50   52 1    
   101   52   53 1    
   102   52   54 1    
   103   52  113 1    
   104   53  114 1    
   105   53  115 1    
   106   53  116 1    
   107   54   55 am   BACKBONE|DICT|INTERRES
   108   54  117 1    
   109   55   56 2    
   110   55   57 1    
   111   57   58 1    
   112   57   59 1    
   113   57  118 1    
   114   58  119 1    
   115   58  120 1    
   116   58  121 1    
   117   59   60 am   BACKBONE|DICT|INTERRES
   118   59  122 1    
   119   60   61 2    
   120   60   62 1    
   121   62   63 1    
   122   62   64 1    
   123   62  123 1    
   124   63  124 1    
   125   63  125 1    
   126   63  126 1    
   127   64   65 am   BACKBONE|DICT|INTERRES
   128   64  127 1    
   129   65   66 2    
@<TRIPOS>SUBSTRUCTURE
     1 UNK         1 GROUP             0       ****    0 ROOT    
