@<TRIPOS>MOLECULE
3R135
127   129    1
SMALL
USER_CHARGES


@<TRIPOS>ATOM
      1 CA        -83.3729   25.9169  -69.6316 C.3       0 UNK        -0.1998 
      2 C         -82.6726   26.5357  -70.8313 C.2       0 UNK         0.4909 
      3 O         -81.5254   26.1891  -71.1117 O.2       0 UNK        -0.5240 
      4 N         -83.3630   27.4309  -71.5526 N.am      1 UNK        -0.4739 
      5 CA        -82.9131   28.2182  -72.7171 C.3       1 UNK         0.0864 
      6 C6        -81.6637   29.0947  -72.4463 C.3       11 UNK        -0.0881 
      7 S7        -81.7569   30.1667  -70.9679 S.3       11 UNK        -0.2682 
      8 C8        -80.2457   31.1841  -71.1458 C.3       11 UNK         0.0289 
      9 C9        -79.0382   30.3466  -71.5466 C.ar      11 UNK        -0.0687 
     10 C10       -78.6878   30.2406  -72.8949 C.ar      11 UNK        -0.0823 
     11 C11       -77.6897   29.3539  -73.2971 C.ar      11 UNK        -0.0830 
     12 C12       -77.0078   28.6019  -72.3375 C.ar      11 UNK        -0.1021 
     13 C13       -77.2939   28.7507  -70.9731 C.ar      11 UNK        -0.0753 
     14 C14       -78.3217   29.6207  -70.5901 C.ar      11 UNK        -0.0933 
     15 C15       -76.5705   27.9535  -69.8846 C.3       11 UNK         0.0166 
     16 S16       -75.0085   27.1464  -70.3873 S.3       11 UNK        -0.2615 
     17 C17       -73.8422   28.5532  -70.4707 C.3       11 UNK        -0.0865 
     18 CA        -73.4994   29.0267  -71.9170 C.3       10 UNK         0.0862 
     19 C         -72.5094   30.2325  -71.9232 C.2       10 UNK         0.5551 
     20 N         -71.5732   30.3278  -72.8612 N.am      10 UNK        -0.7319 
     21 O         -72.6100   31.1198  -71.0792 O.2       10 UNK        -0.5018 
     22 N         -73.1348   27.9341  -72.8373 N.am      10 UNK        -0.4509 
     23 C         -72.0962   27.0978  -72.7087 C.2       10 UNK         0.4899 
     24 O         -71.3313   27.0808  -71.7439 O.2       10 UNK        -0.4839 
     25 CA        -71.8448   26.1305  -73.8801 C.3       9 UNK         0.0222 
     26 CB        -72.5854   24.8082  -73.6447 C.3       9 UNK        -0.1966 
     27 N         -72.2079   26.6612  -75.2013 N.am      9 UNK        -0.4218 
     28 C         -71.6711   27.7577  -75.7623 C.2       9 UNK         0.5020 
     29 O         -70.8833   28.5037  -75.1765 O.2       9 UNK        -0.5274 
     30 CA        -72.0939   28.0839  -77.2096 C.3       8 UNK         0.0270 
     31 CB        -71.1116   29.0372  -77.9229 C.3       8 UNK        -0.1976 
     32 N         -72.3462   26.8916  -78.0274 N.am      8 UNK        -0.4313 
     33 C         -71.4932   25.8969  -78.3252 C.2       8 UNK         0.5041 
     34 O         -70.3104   25.8827  -77.9822 O.2       8 UNK        -0.5577 
     35 CA        -72.0497   24.6972  -79.1177 C.3       7 UNK         0.0284 
     36 CB        -71.8913   23.3965  -78.3100 C.3       7 UNK        -0.1958 
     37 N         -73.4647   24.8662  -79.4581 N.am      7 UNK        -0.4454 
     38 C         -73.9256   25.3562  -80.6178 C.2       7 UNK         0.5089 
     39 O         -73.2073   25.6406  -81.5761 O.2       7 UNK        -0.5125 
     40 CA        -75.4454   25.5988  -80.7180 C.3       6 UNK         0.0408 
     41 CB        -76.1360   24.3996  -81.3864 C.3       6 UNK        -0.1791 
     42 N         -76.0823   25.8651  -79.4228 N.am      6 UNK        -0.4762 
     43 C         -75.8312   26.9320  -78.6481 C.2       6 UNK         0.5007 
     44 O         -75.0740   27.8445  -78.9753 O.2       6 UNK        -0.5032 
     45 CA        -76.4533   26.9453  -77.2390 C.3       5 UNK         0.0783 
     46 C46       -77.7263   27.8232  -77.1913 C.3       11 UNK        -0.0857 
     47 S47       -78.4383   27.9106  -75.5144 S.3       11 UNK        -0.2512 
     48 C48       -77.3743   29.1852  -74.7719 C.3       11 UNK         0.0225 
     49 N         -76.6848   25.5975  -76.7125 N.am      5 UNK        -0.4615 
     50 C         -75.7232   24.7268  -76.3838 C.2       4 UNK         0.5053 
     51 O         -74.5203   24.9496  -76.5472 O.2       4 UNK        -0.5105 
     52 CA        -76.2130   23.3931  -75.7875 C.3       4 UNK         0.0263 
     53 CB        -75.0788   22.5257  -75.2053 C.3       4 UNK        -0.1981 
     54 N         -77.2943   23.5658  -74.8062 N.am      4 UNK        -0.4224 
     55 C         -77.2720   24.3049  -73.6864 C.2       3 UNK         0.4895 
     56 O         -76.3129   24.9910  -73.3323 O.2       3 UNK        -0.5091 
     57 CA        -78.5476   24.2631  -72.8225 C.3       3 UNK         0.0250 
     58 CB        -78.3266   24.8754  -71.4274 C.3       3 UNK        -0.1996 
     59 N         -79.6854   24.9396  -73.4510 N.am      3 UNK        -0.4254 
     60 C         -80.4040   24.4822  -74.4875 C.2       2 UNK         0.5004 
     61 O         -80.1378   23.4336  -75.0786 O.2       2 UNK        -0.5226 
     62 CA        -81.6291   25.3093  -74.9248 C.3       2 UNK         0.0269 
     63 CB        -82.7985   24.4228  -75.3967 C.3       2 UNK        -0.1926 
     64 N         -82.0804   26.1955  -73.8512 N.am      2 UNK        -0.4687 
     65 C         -82.6710   27.3853  -73.9986 C.2       1 UNK         0.5165 
     66 O         -83.0029   27.8474  -75.0910 O.2       1 UNK        -0.5079 
     67 H67       -83.4345   24.8355  -69.7503 H         1 UNK         0.0900 
     68 H68       -84.3837   26.3036  -69.5039 H         1 UNK         0.0900 
     69 H69       -82.8111   26.1287  -68.7223 H         1 UNK         0.0900 
     70 H70       -84.3121   27.6313  -71.2684 H         1 UNK         0.2959 
     71 H71       -83.7398   28.8928  -72.9464 H         1 UNK         0.1079 
     72 H72       -80.7866   28.4538  -72.3379 H         1 UNK         0.0837 
     73 H73       -81.4718   29.7349  -73.3096 H         1 UNK         0.0837 
     74 H74       -80.4283   31.9639  -71.8869 H         1 UNK         0.0685 
     75 H75       -80.0469   31.6977  -70.2041 H         1 UNK         0.0685 
     76 H76       -79.2369   30.7998  -73.6402 H         1 UNK         0.1434 
     77 H77       -76.2621   27.8919  -72.6663 H         1 UNK         0.1329 
     78 H78       -78.5928   29.7051  -69.5465 H         1 UNK         0.1335 
     79 H79       -76.3711   28.5980  -69.0270 H         1 UNK         0.0680 
     80 H80       -77.2488   27.1772  -69.5288 H         1 UNK         0.0680 
     81 H81       -72.9308   28.2577  -69.9488 H         1 UNK         0.1032 
     82 H82       -74.2526   29.3830  -69.8929 H         1 UNK         0.1032 
     83 H83       -74.4120   29.4465  -72.3370 H         1 UNK         0.0461 
     84 H84       -71.4571   29.6080  -73.5661 H         1 UNK         0.3453 
     85 H85       -70.9520   31.1207  -72.8532 H         1 UNK         0.3453 
     86 H86       -73.6947   27.8597  -73.6724 H         1 UNK         0.2984 
     87 H87       -70.7739   25.9189  -73.9038 H         1 UNK         0.0554 
     88 H88       -72.2927   24.3573  -72.6956 H         1 UNK         0.0847 
     89 H89       -72.3708   24.0838  -74.4307 H         1 UNK         0.0847 
     90 H90       -73.6639   24.9637  -73.6118 H         1 UNK         0.0847 
     91 H91       -72.8618   26.1082  -75.7458 H         1 UNK         0.3141 
     92 H92       -73.0501   28.6027  -77.1294 H         1 UNK         0.0743 
     93 H93       -71.0263   29.9844  -77.3890 H         1 UNK         0.0784 
     94 H94       -70.1104   28.6102  -77.9892 H         1 UNK         0.0784 
     95 H95       -71.4467   29.2667  -78.9344 H         1 UNK         0.0784 
     96 H96       -73.2859   26.8254  -78.3983 H         1 UNK         0.3213 
     97 H97       -71.4557   24.6061  -80.0297 H         1 UNK         0.0855 
     98 H98       -70.8410   23.1958  -78.0943 H         1 UNK         0.0814 
     99 H99       -72.2769   22.5376  -78.8594 H         1 UNK         0.0814 
    100 H100      -72.4138   23.4470  -77.3542 H         1 UNK         0.0814 
    101 H101      -74.1220   24.6831  -78.7098 H         1 UNK         0.3105 
    102 H102      -75.5965   26.4759  -81.3508 H         1 UNK         0.0547 
    103 H103      -75.7008   24.1957  -82.3658 H         1 UNK         0.0837 
    104 H104      -76.0367   23.4910  -80.7913 H         1 UNK         0.0837 
    105 H105      -77.1987   24.5875  -81.5405 H         1 UNK         0.0837 
    106 H106      -76.7167   25.1613  -79.0725 H         1 UNK         0.3020 
    107 H107      -75.7048   27.4075  -76.5924 H         1 UNK         0.1245 
    108 H108      -78.4907   27.4260  -77.8618 H         1 UNK         0.0781 
    109 H109      -77.5143   28.8369  -77.5379 H         1 UNK         0.0781 
    110 H110      -77.5131   30.1304  -75.2992 H         1 UNK         0.0836 
    111 H111      -76.3253   28.9138  -74.8937 H         1 UNK         0.0836 
    112 H112      -77.6443   25.3553  -76.5139 H         1 UNK         0.3022 
    113 H113      -76.6438   22.8407  -76.6237 H         1 UNK         0.0747 
    114 H114      -74.2718   22.3886  -75.9259 H         1 UNK         0.0793 
    115 H115      -74.6489   22.9683  -74.3086 H         1 UNK         0.0793 
    116 H116      -75.4430   21.5337  -74.9390 H         1 UNK         0.0793 
    117 H117      -78.1792   23.1185  -75.0318 H         1 UNK         0.3047 
    118 H118      -78.8072   23.2116  -72.6823 H         1 UNK         0.0822 
    119 H119      -77.4715   24.4202  -70.9258 H         1 UNK         0.0807 
    120 H120      -79.1952   24.7278  -70.7857 H         1 UNK         0.0807 
    121 H121      -78.1361   25.9468  -71.4903 H         1 UNK         0.0807 
    122 H122      -79.9476   25.8240  -73.0386 H         1 UNK         0.2946 
    123 H123      -81.2943   25.9205  -75.7663 H         1 UNK         0.1144 
    124 H124      -83.6400   25.0240  -75.7413 H         1 UNK         0.0793 
    125 H125      -83.1553   23.7735  -74.5966 H         1 UNK         0.0793 
    126 H126      -82.4997   23.7846  -76.2293 H         1 UNK         0.0793 
    127 H127      -81.8492   25.9170  -72.8991 H         1 UNK         0.2896 
@<TRIPOS>BOND
     1    1    2 1    
     2    1   67 1    
     3    1   68 1    
     4    1   69 1    
     5    2    3 2    
     6    2    4 am   BACKBONE|DICT|INTERRES
     7    4    5 1    
     8    4   70 1    
     9    5    6 1    
    10    5   65 1    
    11    5   71 1    
    12    6    7 1    
    13    6   72 1    
    14    6   73 1    
    15    7    8 1    
    16    8    9 1    
    17    8   74 1    
    18    8   75 1    
    19    9   10 ar   
    20    9   14 ar   
    21   10   11 ar   
    22   10   76 1    
    23   11   12 ar   
    24   11   48 1    
    25   12   13 ar   
    26   12   77 1    
    27   13   14 ar   
    28   13   15 1    
    29   14   78 1    
    30   15   16 1    
    31   15   79 1    
    32   15   80 1    
    33   16   17 1    
    34   17   18 1    
    35   17   81 1    
    36   17   82 1    
    37   18   19 1    
    38   18   22 1    
    39   18   83 1    
    40   19   20 am   BACKBONE|DICT|INTERRES
    41   19   21 2    
    42   20   84 1    
    43   20   85 1    
    44   22   23 am   BACKBONE|DICT|INTERRES
    45   22   86 1    
    46   23   24 2    
    47   23   25 1    
    48   25   26 1    
    49   25   27 1    
    50   25   87 1    
    51   26   88 1    
    52   26   89 1    
    53   26   90 1    
    54   27   28 am   BACKBONE|DICT|INTERRES
    55   27   91 1    
    56   28   29 2    
    57   28   30 1    
    58   30   31 1    
    59   30   32 1    
    60   30   92 1    
    61   31   93 1    
    62   31   94 1    
    63   31   95 1    
    64   32   33 am   BACKBONE|DICT|INTERRES
    65   32   96 1    
    66   33   34 2    
    67   33   35 1    
    68   35   36 1    
    69   35   37 1    
    70   35   97 1    
    71   36   98 1    
    72   36   99 1    
    73   36  100 1    
    74   37   38 am   BACKBONE|DICT|INTERRES
    75   37  101 1    
    76   38   39 2    
    77   38   40 1    
    78   40   41 1    
    79   40   42 1    
    80   40  102 1    
    81   41  103 1    
    82   41  104 1    
    83   41  105 1    
    84   42   43 am   BACKBONE|DICT|INTERRES
    85   42  106 1    
    86   43   44 2    
    87   43   45 1    
    88   45   46 1    
    89   45   49 1    
    90   45  107 1    
    91   46   47 1    
    92   46  108 1    
    93   46  109 1    
    94   47   48 1    
    95   48  110 1    
    96   48  111 1    
    97   49   50 am   BACKBONE|DICT|INTERRES
    98   49  112 1    
    99   50   51 2    
   100   50   52 1    
   101   52   53 1    
   102   52   54 1    
   103   52  113 1    
   104   53  114 1    
   105   53  115 1    
   106   53  116 1    
   107   54   55 am   BACKBONE|DICT|INTERRES
   108   54  117 1    
   109   55   56 2    
   110   55   57 1    
   111   57   58 1    
   112   57   59 1    
   113   57  118 1    
   114   58  119 1    
   115   58  120 1    
   116   58  121 1    
   117   59   60 am   BACKBONE|DICT|INTERRES
   118   59  122 1    
   119   60   61 2    
   120   60   62 1    
   121   62   63 1    
   122   62   64 1    
   123   62  123 1    
   124   63  124 1    
   125   63  125 1    
   126   63  126 1    
   127   64   65 am   BACKBONE|DICT|INTERRES
   128   64  127 1    
   129   65   66 2    
@<TRIPOS>SUBSTRUCTURE
     1 UNK         1 GROUP             0       ****    0 ROOT    
