@<TRIPOS>MOLECULE
3R135
127   129    1
SMALL
USER_CHARGES


@<TRIPOS>ATOM
      1 CA        -75.7362   22.4638  -74.8282 C.3       0 UNK        -0.1998 
      2 C         -77.0400   22.7686  -74.1090 C.2       0 UNK         0.4909 
      3 O         -78.1102   22.3534  -74.5592 O.2       0 UNK        -0.5240 
      4 N         -76.9417   23.4807  -72.9790 N.am      1 UNK        -0.4739 
      5 CA        -78.0479   23.8388  -72.0850 C.3       1 UNK         0.0864 
      6 C6        -77.5199   24.4677  -70.7680 C.3       11 UNK        -0.0881 
      7 S7        -76.6824   26.0797  -70.9869 S.3       11 UNK        -0.2682 
      8 C8        -77.9356   27.2172  -70.3161 C.3       11 UNK         0.0289 
      9 C9        -77.9959   28.5070  -71.1161 C.ar      11 UNK        -0.0687 
     10 C10       -78.7913   28.5774  -72.2618 C.ar      11 UNK        -0.0823 
     11 C11       -78.8841   29.7620  -72.9988 C.ar      11 UNK        -0.0830 
     12 C12       -78.1683   30.8868  -72.5736 C.ar      11 UNK        -0.1021 
     13 C13       -77.3761   30.8321  -71.4215 C.ar      11 UNK        -0.0753 
     14 C14       -77.2895   29.6375  -70.6999 C.ar      11 UNK        -0.0933 
     15 C15       -76.6475   32.0713  -70.9226 C.3       11 UNK         0.0166 
     16 S16       -74.8479   31.9451  -71.1516 S.3       11 UNK        -0.2615 
     17 C17       -74.6743   32.2237  -72.9490 C.3       11 UNK        -0.0865 
     18 CA        -74.4635   30.9206  -73.7767 C.3       10 UNK         0.0862 
     19 C         -74.3311   31.2186  -75.3027 C.2       10 UNK         0.5551 
     20 N         -73.4788   30.5260  -76.0486 N.am      10 UNK        -0.7319 
     21 O         -75.0286   32.0837  -75.8269 O.2       10 UNK        -0.5018 
     22 N         -73.4133   30.0416  -73.2329 N.am      10 UNK        -0.4509 
     23 C         -72.1128   30.3364  -73.0960 C.2       10 UNK         0.4899 
     24 O         -71.6186   31.4331  -73.3593 O.2       10 UNK        -0.4839 
     25 CA        -71.1922   29.2080  -72.5893 C.3       9 UNK         0.0222 
     26 CB        -70.9258   29.3761  -71.0843 C.3       9 UNK        -0.1966 
     27 N         -71.6953   27.8509  -72.8421 N.am      9 UNK        -0.4218 
     28 C         -71.9435   27.3320  -74.0533 C.2       9 UNK         0.5020 
     29 O         -71.7552   27.9495  -75.1056 O.2       9 UNK        -0.5274 
     30 CA        -72.4993   25.8968  -74.0796 C.3       8 UNK         0.0270 
     31 CB        -73.7369   25.7406  -73.1747 C.3       8 UNK        -0.1976 
     32 N         -72.8852   25.5551  -75.4455 N.am      8 UNK        -0.4313 
     33 C         -72.3110   24.6263  -76.2197 C.2       8 UNK         0.5041 
     34 O         -71.4296   23.8605  -75.8256 O.2       8 UNK        -0.5577 
     35 CA        -72.7868   24.5225  -77.6827 C.3       7 UNK         0.0284 
     36 CB        -73.4511   23.1628  -77.9589 C.3       7 UNK        -0.1958 
     37 N         -73.7136   25.5973  -78.0498 N.am      7 UNK        -0.4454 
     38 C         -73.3274   26.8029  -78.4928 C.2       7 UNK         0.5089 
     39 O         -72.1559   27.0925  -78.7374 O.2       7 UNK        -0.5125 
     40 CA        -74.4131   27.8767  -78.7039 C.3       6 UNK         0.0408 
     41 CB        -74.7241   28.0334  -80.2010 C.3       6 UNK        -0.1791 
     42 N         -75.6662   27.6410  -77.9812 N.am      6 UNK        -0.4762 
     43 C         -75.8096   27.6034  -76.6476 C.2       6 UNK         0.5007 
     44 O         -74.8823   27.7367  -75.8521 O.2       6 UNK        -0.5032 
     45 CA        -77.2274   27.3126  -76.1182 C.3       5 UNK         0.0783 
     46 C46       -78.0266   28.6376  -76.0438 C.3       11 UNK        -0.0857 
     47 S47       -79.6941   28.4213  -75.3388 S.3       11 UNK        -0.2512 
     48 C48       -79.8028   29.8552  -74.2146 C.3       11 UNK         0.0225 
     49 N         -77.9438   26.2776  -76.8832 N.am      5 UNK        -0.4615 
     50 C         -77.4752   25.0717  -77.2357 C.2       4 UNK         0.5053 
     51 O         -76.3196   24.6974  -77.0390 O.2       4 UNK        -0.5105 
     52 CA        -78.4784   24.1320  -77.9126 C.3       4 UNK         0.0263 
     53 CB        -77.8355   22.8292  -78.4252 C.3       4 UNK        -0.1981 
     54 N         -79.5317   23.8070  -76.9542 N.am      4 UNK        -0.4224 
     55 C         -80.8447   23.9107  -77.1998 C.2       3 UNK         0.4895 
     56 O         -81.3195   24.2760  -78.2755 O.2       3 UNK        -0.5091 
     57 CA        -81.7889   23.5855  -76.0398 C.3       3 UNK         0.0250 
     58 CB        -81.8128   22.0755  -75.7367 C.3       3 UNK        -0.1996 
     59 N         -81.3923   24.3461  -74.8596 N.am      3 UNK        -0.4254 
     60 C         -82.1782   24.6759  -73.8313 C.2       2 UNK         0.5004 
     61 O         -83.3675   24.3627  -73.7493 O.2       2 UNK        -0.5226 
     62 CA        -81.4985   25.4663  -72.6946 C.3       2 UNK         0.0269 
     63 CB        -82.4527   25.7829  -71.5282 C.3       2 UNK        -0.1926 
     64 N         -80.3246   24.7579  -72.1697 N.am      2 UNK        -0.4687 
     65 C         -79.1260   24.7117  -72.7670 C.2       1 UNK         0.5165 
     66 O         -78.8779   25.3166  -73.8131 O.2       1 UNK        -0.5079 
     67 H67       -75.1757   23.3795  -75.0138 H         1 UNK         0.0900 
     68 H68       -75.9280   21.9846  -75.7870 H         1 UNK         0.0900 
     69 H69       -75.1183   21.7931  -74.2321 H         1 UNK         0.0900 
     70 H70       -76.0394   23.8317  -72.6948 H         1 UNK         0.2959 
     71 H71       -78.5381   22.8975  -71.8263 H         1 UNK         0.1079 
     72 H72       -78.3254   24.5599  -70.0377 H         1 UNK         0.0837 
     73 H73       -76.8040   23.7866  -70.3050 H         1 UNK         0.0837 
     74 H74       -78.9222   26.7521  -70.3269 H         1 UNK         0.0685 
     75 H75       -77.7077   27.4232  -69.2692 H         1 UNK         0.0685 
     76 H76       -79.3440   27.7055  -72.5771 H         1 UNK         0.1434 
     77 H77       -78.2458   31.8138  -73.1254 H         1 UNK         0.1329 
     78 H78       -76.6795   29.5934  -69.8079 H         1 UNK         0.1335 
     79 H79       -77.0206   32.9727  -71.4112 H         1 UNK         0.0680 
     80 H80       -76.8538   32.1982  -69.8589 H         1 UNK         0.0680 
     81 H81       -73.8347   32.9041  -73.0996 H         1 UNK         0.1032 
     82 H82       -75.5526   32.7616  -73.3098 H         1 UNK         0.1032 
     83 H83       -75.3810   30.3372  -73.6922 H         1 UNK         0.0461 
     84 H84       -72.9510   29.7607  -75.6474 H         1 UNK         0.3453 
     85 H85       -73.4034   30.7325  -77.0303 H         1 UNK         0.3453 
     86 H86       -73.7118   29.1054  -73.0056 H         1 UNK         0.2984 
     87 H87       -70.2412   29.3060  -73.1168 H         1 UNK         0.0554 
     88 H88       -70.2024   28.6456  -70.7220 H         1 UNK         0.0847 
     89 H89       -71.8395   29.2677  -70.4982 H         1 UNK         0.0847 
     90 H90       -70.5187   30.3652  -70.8687 H         1 UNK         0.0847 
     91 H91       -71.8678   27.2776  -72.0287 H         1 UNK         0.3141 
     92 H92       -71.7115   25.2309  -73.7220 H         1 UNK         0.0743 
     93 H93       -74.5366   26.4271  -73.4571 H         1 UNK         0.0784 
     94 H94       -74.1341   24.7283  -73.2320 H         1 UNK         0.0784 
     95 H95       -73.5014   25.9242  -72.1262 H         1 UNK         0.0784 
     96 H96       -73.5375   26.2079  -75.8699 H         1 UNK         0.3213 
     97 H97       -71.8957   24.5860  -78.3110 H         1 UNK         0.0855 
     98 H98       -74.3403   23.0139  -77.3490 H         1 UNK         0.0814 
     99 H99       -72.7669   22.3418  -77.7409 H         1 UNK         0.0814 
    100 H100      -73.7446   23.0703  -79.0045 H         1 UNK         0.0814 
    101 H101      -74.6953   25.4338  -77.8386 H         1 UNK         0.3105 
    102 H102      -74.0020   28.8209  -78.3426 H         1 UNK         0.0547 
    103 H103      -73.8170   28.2465  -80.7685 H         1 UNK         0.0837 
    104 H104      -75.1631   27.1266  -80.6189 H         1 UNK         0.0837 
    105 H105      -75.4150   28.8572  -80.3806 H         1 UNK         0.0837 
    106 H106      -76.4890   27.4866  -78.5460 H         1 UNK         0.3020 
    107 H107      -77.1111   26.9250  -75.1031 H         1 UNK         0.1245 
    108 H108      -78.1379   29.0797  -77.0357 H         1 UNK         0.0781 
    109 H109      -77.4806   29.3703  -75.4454 H         1 UNK         0.0781 
    110 H110      -80.8311   29.9401  -73.8611 H         1 UNK         0.0836 
    111 H111      -79.5996   30.7625  -74.7857 H         1 UNK         0.0836 
    112 H112      -78.9165   26.4804  -77.0622 H         1 UNK         0.3022 
    113 H113      -78.8821   24.6710  -78.7722 H         1 UNK         0.0747 
    114 H114      -78.5591   22.2206  -78.9674 H         1 UNK         0.0793 
    115 H115      -77.0110   23.0396  -79.1077 H         1 UNK         0.0793 
    116 H116      -77.4401   22.2261  -77.6079 H         1 UNK         0.0793 
    117 H117      -79.2108   23.4770  -76.0484 H         1 UNK         0.3047 
    118 H118      -82.7929   23.8982  -76.3360 H         1 UNK         0.0822 
    119 H119      -82.5584   21.8353  -74.9787 H         1 UNK         0.0807 
    120 H120      -80.8464   21.7189  -75.3778 H         1 UNK         0.0807 
    121 H121      -82.0638   21.5018  -76.6298 H         1 UNK         0.0807 
    122 H122      -80.4317   24.6778  -74.8299 H         1 UNK         0.2946 
    123 H123      -81.1808   26.4173  -73.1275 H         1 UNK         0.1144 
    124 H124      -81.9607   26.3894  -70.7675 H         1 UNK         0.0793 
    125 H125      -82.8213   24.8750  -71.0491 H         1 UNK         0.0793 
    126 H126      -83.3209   26.3449  -71.8751 H         1 UNK         0.0793 
    127 H127      -80.4740   24.2146  -71.3314 H         1 UNK         0.2896 
@<TRIPOS>BOND
     1    1    2 1    
     2    1   67 1    
     3    1   68 1    
     4    1   69 1    
     5    2    3 2    
     6    2    4 am   BACKBONE|DICT|INTERRES
     7    4    5 1    
     8    4   70 1    
     9    5    6 1    
    10    5   65 1    
    11    5   71 1    
    12    6    7 1    
    13    6   72 1    
    14    6   73 1    
    15    7    8 1    
    16    8    9 1    
    17    8   74 1    
    18    8   75 1    
    19    9   10 ar   
    20    9   14 ar   
    21   10   11 ar   
    22   10   76 1    
    23   11   12 ar   
    24   11   48 1    
    25   12   13 ar   
    26   12   77 1    
    27   13   14 ar   
    28   13   15 1    
    29   14   78 1    
    30   15   16 1    
    31   15   79 1    
    32   15   80 1    
    33   16   17 1    
    34   17   18 1    
    35   17   81 1    
    36   17   82 1    
    37   18   19 1    
    38   18   22 1    
    39   18   83 1    
    40   19   20 am   BACKBONE|DICT|INTERRES
    41   19   21 2    
    42   20   84 1    
    43   20   85 1    
    44   22   23 am   BACKBONE|DICT|INTERRES
    45   22   86 1    
    46   23   24 2    
    47   23   25 1    
    48   25   26 1    
    49   25   27 1    
    50   25   87 1    
    51   26   88 1    
    52   26   89 1    
    53   26   90 1    
    54   27   28 am   BACKBONE|DICT|INTERRES
    55   27   91 1    
    56   28   29 2    
    57   28   30 1    
    58   30   31 1    
    59   30   32 1    
    60   30   92 1    
    61   31   93 1    
    62   31   94 1    
    63   31   95 1    
    64   32   33 am   BACKBONE|DICT|INTERRES
    65   32   96 1    
    66   33   34 2    
    67   33   35 1    
    68   35   36 1    
    69   35   37 1    
    70   35   97 1    
    71   36   98 1    
    72   36   99 1    
    73   36  100 1    
    74   37   38 am   BACKBONE|DICT|INTERRES
    75   37  101 1    
    76   38   39 2    
    77   38   40 1    
    78   40   41 1    
    79   40   42 1    
    80   40  102 1    
    81   41  103 1    
    82   41  104 1    
    83   41  105 1    
    84   42   43 am   BACKBONE|DICT|INTERRES
    85   42  106 1    
    86   43   44 2    
    87   43   45 1    
    88   45   46 1    
    89   45   49 1    
    90   45  107 1    
    91   46   47 1    
    92   46  108 1    
    93   46  109 1    
    94   47   48 1    
    95   48  110 1    
    96   48  111 1    
    97   49   50 am   BACKBONE|DICT|INTERRES
    98   49  112 1    
    99   50   51 2    
   100   50   52 1    
   101   52   53 1    
   102   52   54 1    
   103   52  113 1    
   104   53  114 1    
   105   53  115 1    
   106   53  116 1    
   107   54   55 am   BACKBONE|DICT|INTERRES
   108   54  117 1    
   109   55   56 2    
   110   55   57 1    
   111   57   58 1    
   112   57   59 1    
   113   57  118 1    
   114   58  119 1    
   115   58  120 1    
   116   58  121 1    
   117   59   60 am   BACKBONE|DICT|INTERRES
   118   59  122 1    
   119   60   61 2    
   120   60   62 1    
   121   62   63 1    
   122   62   64 1    
   123   62  123 1    
   124   63  124 1    
   125   63  125 1    
   126   63  126 1    
   127   64   65 am   BACKBONE|DICT|INTERRES
   128   64  127 1    
   129   65   66 2    
@<TRIPOS>SUBSTRUCTURE
     1 UNK         1 GROUP             0       ****    0 ROOT    
