@<TRIPOS>MOLECULE
3R135
127   129    1
SMALL
USER_CHARGES


@<TRIPOS>ATOM
      1 CA        -82.8901   24.7805  -69.8526 C.3       0 UNK        -0.1998 
      2 C         -82.1715   25.4659  -71.0047 C.2       0 UNK         0.4909 
      3 O         -81.0865   25.0300  -71.3895 O.2       0 UNK        -0.5240 
      4 N         -82.7817   26.5192  -71.5678 N.am      1 UNK        -0.4739 
      5 CA        -82.2955   27.3930  -72.6541 C.3       1 UNK         0.0864 
      6 C6        -80.9469   28.0940  -72.3484 C.3       11 UNK        -0.0881 
      7 S7        -80.9704   29.0332  -70.7801 S.3       11 UNK        -0.2682 
      8 C8        -79.8448   30.4237  -71.1489 C.3       11 UNK         0.0289 
      9 C9        -78.5146   29.9899  -71.7592 C.ar      11 UNK        -0.0687 
     10 C10       -77.8049   28.8990  -71.2439 C.ar      11 UNK        -0.0823 
     11 C11       -76.6247   28.4648  -71.8534 C.ar      11 UNK        -0.0830 
     12 C12       -76.1276   29.1631  -72.9567 C.ar      11 UNK        -0.1021 
     13 C13       -76.7973   30.2855  -73.4516 C.ar      11 UNK        -0.0753 
     14 C14       -77.9970   30.6851  -72.8569 C.ar      11 UNK        -0.0933 
     15 C15       -76.2374   31.0573  -74.6390 C.3       11 UNK         0.0166 
     16 S16       -75.4447   32.6219  -74.1428 S.3       11 UNK        -0.2615 
     17 C17       -73.9396   32.0323  -73.2916 C.3       11 UNK        -0.0865 
     18 CA        -72.7408   31.7940  -74.2586 C.3       10 UNK         0.0862 
     19 C         -71.8499   33.0505  -74.4855 C.2       10 UNK         0.5551 
     20 N         -70.5412   32.9047  -74.6610 N.am      10 UNK        -0.7319 
     21 O         -72.3428   34.1753  -74.5128 O.2       10 UNK        -0.5018 
     22 N         -71.9710   30.5997  -73.8713 N.am      10 UNK        -0.4509 
     23 C         -72.2767   29.3485  -74.2289 C.2       10 UNK         0.4899 
     24 O         -73.2162   29.0599  -74.9674 O.2       10 UNK        -0.4839 
     25 CA        -71.4019   28.2366  -73.6373 C.3       9 UNK         0.0222 
     26 CB        -71.5723   28.1488  -72.1075 C.3       9 UNK        -0.1966 
     27 N         -71.7567   26.9497  -74.2358 N.am      9 UNK        -0.4218 
     28 C         -70.9287   25.9070  -74.3685 C.2       9 UNK         0.5020 
     29 O         -69.7410   25.9322  -74.0409 O.2       9 UNK        -0.5274 
     30 CA        -71.5124   24.6052  -74.9382 C.3       8 UNK         0.0270 
     31 CB        -72.1712   23.7809  -73.8191 C.3       8 UNK        -0.1976 
     32 N         -72.4871   24.8380  -76.0049 N.am      8 UNK        -0.4313 
     33 C         -72.1862   24.9035  -77.3091 C.2       8 UNK         0.5041 
     34 O         -71.0385   24.8205  -77.7491 O.2       8 UNK        -0.5577 
     35 CA        -73.3534   25.0551  -78.3032 C.3       7 UNK         0.0284 
     36 CB        -73.7787   23.6778  -78.8378 C.3       7 UNK        -0.1958 
     37 N         -74.5197   25.7205  -77.7238 N.am      7 UNK        -0.4454 
     38 C         -74.5985   27.0321  -77.4697 C.2       7 UNK         0.5089 
     39 O         -73.7414   27.8435  -77.8189 O.2       7 UNK        -0.5125 
     40 CA        -75.8333   27.5171  -76.6847 C.3       6 UNK         0.0408 
     41 CB        -76.9291   28.0094  -77.6414 C.3       6 UNK        -0.1791 
     42 N         -76.3941   26.5162  -75.7688 N.am      6 UNK        -0.4762 
     43 C         -75.7433   25.9796  -74.7242 C.2       6 UNK         0.5007 
     44 O         -74.5779   26.2438  -74.4319 O.2       6 UNK        -0.5032 
     45 CA        -76.5048   24.9172  -73.9134 C.3       5 UNK         0.0783 
     46 C46       -77.5373   25.5630  -72.9507 C.3       11 UNK        -0.0857 
     47 S47       -76.9081   25.7394  -71.2464 S.3       11 UNK        -0.2512 
     48 C48       -75.8797   27.2469  -71.3221 C.3       11 UNK         0.0225 
     49 N         -77.1158   23.9458  -74.8228 N.am      5 UNK        -0.4615 
     50 C         -76.4277   23.0071  -75.4902 C.2       4 UNK         0.5053 
     51 O         -75.2231   22.8093  -75.3371 O.2       4 UNK        -0.5105 
     52 CA        -77.1967   22.1658  -76.5258 C.3       4 UNK         0.0263 
     53 CB        -77.7457   20.8860  -75.8760 C.3       4 UNK        -0.1981 
     54 N         -78.2951   22.8957  -77.1629 N.am      4 UNK        -0.4224 
     55 C         -78.1458   23.9826  -77.9343 C.2       3 UNK         0.4895 
     56 O         -77.0526   24.4343  -78.2696 O.2       3 UNK        -0.5091 
     57 CA        -79.4273   24.7247  -78.3565 C.3       3 UNK         0.0250 
     58 CB        -79.8807   24.2620  -79.7499 C.3       3 UNK        -0.1996 
     59 N         -80.5374   24.5813  -77.4063 N.am      3 UNK        -0.4254 
     60 C         -80.5069   24.9688  -76.1229 C.2       2 UNK         0.5004 
     61 O         -79.5264   25.4964  -75.5893 O.2       2 UNK        -0.5226 
     62 CA        -81.7469   24.6134  -75.2884 C.3       2 UNK         0.0269 
     63 CB        -81.6914   23.1365  -74.8613 C.3       2 UNK        -0.1926 
     64 N         -81.8542   25.4344  -74.0849 N.am      2 UNK        -0.4687 
     65 C         -82.2554   26.7090  -74.0399 C.2       1 UNK         0.5165 
     66 O         -82.6198   27.3386  -75.0344 O.2       1 UNK        -0.5079 
     67 H67       -83.8410   25.2597  -69.6206 H         1 UNK         0.0900 
     68 H68       -83.0864   23.7377  -70.1003 H         1 UNK         0.0900 
     69 H69       -82.2698   24.8075  -68.9572 H         1 UNK         0.0900 
     70 H70       -83.6870   26.7861  -71.2061 H         1 UNK         0.2959 
     71 H71       -83.0482   28.1787  -72.7404 H         1 UNK         0.1079 
     72 H72       -80.6924   28.7781  -73.1606 H         1 UNK         0.0837 
     73 H73       -80.1340   27.3671  -72.3010 H         1 UNK         0.0837 
     74 H74       -80.3643   31.1133  -71.8162 H         1 UNK         0.0685 
     75 H75       -79.6482   30.9730  -70.2275 H         1 UNK         0.0685 
     76 H76       -78.1916   28.3603  -70.3897 H         1 UNK         0.1434 
     77 H77       -75.2136   28.8342  -73.4297 H         1 UNK         0.1329 
     78 H78       -78.5260   31.5414  -73.2526 H         1 UNK         0.1335 
     79 H79       -75.5143   30.4567  -75.1896 H         1 UNK         0.0680 
     80 H80       -77.0448   31.2771  -75.3389 H         1 UNK         0.0680 
     81 H81       -73.6756   32.7482  -72.5111 H         1 UNK         0.1032 
     82 H82       -74.1916   31.1194  -72.7528 H         1 UNK         0.1032 
     83 H83       -73.1443   31.5940  -75.2531 H         1 UNK         0.0461 
     84 H84       -70.1207   31.9905  -74.7042 H         1 UNK         0.3453 
     85 H85       -69.9735   33.7247  -74.8089 H         1 UNK         0.3453 
     86 H86       -71.1855   30.7658  -73.2579 H         1 UNK         0.2984 
     87 H87       -70.3633   28.4741  -73.8765 H         1 UNK         0.0554 
     88 H88       -71.2873   29.0803  -71.6176 H         1 UNK         0.0847 
     89 H89       -70.9483   27.3625  -71.6825 H         1 UNK         0.0847 
     90 H90       -72.6064   27.9380  -71.8323 H         1 UNK         0.0847 
     91 H91       -72.7275   26.8677  -74.5341 H         1 UNK         0.3141 
     92 H92       -70.6822   24.0164  -75.3345 H         1 UNK         0.0743 
     93 H93       -73.0075   24.3100  -73.3612 H         1 UNK         0.0784 
     94 H94       -72.5462   22.8294  -74.1970 H         1 UNK         0.0784 
     95 H95       -71.4553   23.5563  -73.0273 H         1 UNK         0.0784 
     96 H96       -73.4493   24.9699  -75.7169 H         1 UNK         0.3213 
     97 H97       -72.9967   25.6533  -79.1446 H         1 UNK         0.0855 
     98 H98       -74.1531   23.0345  -78.0403 H         1 UNK         0.0814 
     99 H99       -72.9382   23.1634  -79.3058 H         1 UNK         0.0814 
    100 H100      -74.5628   23.7688  -79.5898 H         1 UNK         0.0814 
    101 H101      -75.3349   25.1462  -77.5322 H         1 UNK         0.3105 
    102 H102      -75.5160   28.3616  -76.0744 H         1 UNK         0.0547 
    103 H103      -76.5596   28.8242  -78.2653 H         1 UNK         0.0837 
    104 H104      -77.2646   27.2170  -78.3101 H         1 UNK         0.0837 
    105 H105      -77.7957   28.3853  -77.0973 H         1 UNK         0.0837 
    106 H106      -77.3510   26.2282  -75.9336 H         1 UNK         0.3020 
    107 H107      -75.7649   24.3749  -73.3194 H         1 UNK         0.1245 
    108 H108      -78.4219   24.9281  -72.8724 H         1 UNK         0.0781 
    109 H109      -77.9176   26.5187  -73.3173 H         1 UNK         0.0781 
    110 H110      -74.9938   27.0386  -71.9227 H         1 UNK         0.0836 
    111 H111      -75.5157   27.4708  -70.3186 H         1 UNK         0.0836 
    112 H112      -78.0898   24.1067  -75.0510 H         1 UNK         0.3022 
    113 H113      -76.4891   21.8793  -77.3069 H         1 UNK         0.0747 
    114 H114      -78.2218   20.2388  -76.6129 H         1 UNK         0.0793 
    115 H115      -76.9435   20.3099  -75.4123 H         1 UNK         0.0793 
    116 H116      -78.4784   21.1082  -75.0989 H         1 UNK         0.0793 
    117 H117      -79.2319   22.5861  -76.9518 H         1 UNK         0.3047 
    118 H118      -79.1836   25.7870  -78.4125 H         1 UNK         0.0822 
    119 H119      -80.7298   24.8457  -80.1060 H         1 UNK         0.0807 
    120 H120      -80.1691   23.2101  -79.7537 H         1 UNK         0.0807 
    121 H121      -79.0791   24.3826  -80.4803 H         1 UNK         0.0807 
    122 H122      -81.3754   24.1423  -77.7611 H         1 UNK         0.2946 
    123 H123      -82.6374   24.7773  -75.8997 H         1 UNK         0.1144 
    124 H124      -80.8107   22.9259  -74.2524 H         1 UNK         0.0793 
    125 H125      -81.6590   22.4726  -75.7260 H         1 UNK         0.0793 
    126 H126      -82.5712   22.8605  -74.2795 H         1 UNK         0.0793 
    127 H127      -81.5149   25.0331  -73.2144 H         1 UNK         0.2896 
@<TRIPOS>BOND
     1    1    2 1    
     2    1   67 1    
     3    1   68 1    
     4    1   69 1    
     5    2    3 2    
     6    2    4 am   BACKBONE|DICT|INTERRES
     7    4    5 1    
     8    4   70 1    
     9    5    6 1    
    10    5   65 1    
    11    5   71 1    
    12    6    7 1    
    13    6   72 1    
    14    6   73 1    
    15    7    8 1    
    16    8    9 1    
    17    8   74 1    
    18    8   75 1    
    19    9   10 ar   
    20    9   14 ar   
    21   10   11 ar   
    22   10   76 1    
    23   11   12 ar   
    24   11   48 1    
    25   12   13 ar   
    26   12   77 1    
    27   13   14 ar   
    28   13   15 1    
    29   14   78 1    
    30   15   16 1    
    31   15   79 1    
    32   15   80 1    
    33   16   17 1    
    34   17   18 1    
    35   17   81 1    
    36   17   82 1    
    37   18   19 1    
    38   18   22 1    
    39   18   83 1    
    40   19   20 am   BACKBONE|DICT|INTERRES
    41   19   21 2    
    42   20   84 1    
    43   20   85 1    
    44   22   23 am   BACKBONE|DICT|INTERRES
    45   22   86 1    
    46   23   24 2    
    47   23   25 1    
    48   25   26 1    
    49   25   27 1    
    50   25   87 1    
    51   26   88 1    
    52   26   89 1    
    53   26   90 1    
    54   27   28 am   BACKBONE|DICT|INTERRES
    55   27   91 1    
    56   28   29 2    
    57   28   30 1    
    58   30   31 1    
    59   30   32 1    
    60   30   92 1    
    61   31   93 1    
    62   31   94 1    
    63   31   95 1    
    64   32   33 am   BACKBONE|DICT|INTERRES
    65   32   96 1    
    66   33   34 2    
    67   33   35 1    
    68   35   36 1    
    69   35   37 1    
    70   35   97 1    
    71   36   98 1    
    72   36   99 1    
    73   36  100 1    
    74   37   38 am   BACKBONE|DICT|INTERRES
    75   37  101 1    
    76   38   39 2    
    77   38   40 1    
    78   40   41 1    
    79   40   42 1    
    80   40  102 1    
    81   41  103 1    
    82   41  104 1    
    83   41  105 1    
    84   42   43 am   BACKBONE|DICT|INTERRES
    85   42  106 1    
    86   43   44 2    
    87   43   45 1    
    88   45   46 1    
    89   45   49 1    
    90   45  107 1    
    91   46   47 1    
    92   46  108 1    
    93   46  109 1    
    94   47   48 1    
    95   48  110 1    
    96   48  111 1    
    97   49   50 am   BACKBONE|DICT|INTERRES
    98   49  112 1    
    99   50   51 2    
   100   50   52 1    
   101   52   53 1    
   102   52   54 1    
   103   52  113 1    
   104   53  114 1    
   105   53  115 1    
   106   53  116 1    
   107   54   55 am   BACKBONE|DICT|INTERRES
   108   54  117 1    
   109   55   56 2    
   110   55   57 1    
   111   57   58 1    
   112   57   59 1    
   113   57  118 1    
   114   58  119 1    
   115   58  120 1    
   116   58  121 1    
   117   59   60 am   BACKBONE|DICT|INTERRES
   118   59  122 1    
   119   60   61 2    
   120   60   62 1    
   121   62   63 1    
   122   62   64 1    
   123   62  123 1    
   124   63  124 1    
   125   63  125 1    
   126   63  126 1    
   127   64   65 am   BACKBONE|DICT|INTERRES
   128   64  127 1    
   129   65   66 2    
@<TRIPOS>SUBSTRUCTURE
     1 UNK         1 GROUP             0       ****    0 ROOT    
