@<TRIPOS>MOLECULE
3R135
127   129    1
SMALL
USER_CHARGES


@<TRIPOS>ATOM
      1 CA        -79.0344   30.5782  -75.0150 C.3       0 UNK        -0.1998 
      2 C         -79.1144   29.1989  -74.3782 C.2       0 UNK         0.4909 
      3 O         -78.3135   28.3275  -74.7089 O.2       0 UNK        -0.5240 
      4 N         -80.0802   28.9965  -73.4719 N.am      1 UNK        -0.4739 
      5 CA        -80.2566   27.7608  -72.6938 C.3       1 UNK         0.0864 
      6 C6        -81.1469   27.9790  -71.4396 C.3       11 UNK        -0.0881 
      7 S7        -80.7071   29.4514  -70.4489 S.3       11 UNK        -0.2682 
      8 C8        -79.5818   28.7608  -69.1948 C.3       11 UNK         0.0289 
      9 C9        -78.2511   28.3429  -69.8017 C.ar      11 UNK        -0.0687 
     10 C10       -77.9208   26.9897  -69.9159 C.ar      11 UNK        -0.0823 
     11 C11       -76.7142   26.6024  -70.5062 C.ar      11 UNK        -0.0830 
     12 C12       -75.8232   27.5808  -70.9588 C.ar      11 UNK        -0.1021 
     13 C13       -76.1409   28.9369  -70.8471 C.ar      11 UNK        -0.0753 
     14 C14       -77.3549   29.3118  -70.2638 C.ar      11 UNK        -0.0933 
     15 C15       -75.1847   29.9975  -71.3713 C.3       11 UNK         0.0166 
     16 S16       -75.4156   30.2491  -73.1574 S.3       11 UNK        -0.2615 
     17 C17       -74.7610   31.9384  -73.3723 C.3       11 UNK        -0.0865 
     18 CA        -74.0016   32.1172  -74.7216 C.3       10 UNK         0.0862 
     19 C         -73.7129   33.6094  -75.0820 C.2       10 UNK         0.5551 
     20 N         -74.6642   34.5101  -74.8714 N.am      10 UNK        -0.7319 
     21 O         -72.6553   33.9619  -75.6025 O.2       10 UNK        -0.5018 
     22 N         -72.8144   31.2501  -74.8283 N.am      10 UNK        -0.4509 
     23 C         -71.6974   31.3253  -74.0940 C.2       10 UNK         0.4899 
     24 O         -71.5499   32.0861  -73.1356 O.2       10 UNK        -0.4839 
     25 CA        -70.5556   30.3736  -74.5033 C.3       9 UNK         0.0222 
     26 CB        -69.2414   30.6690  -73.7552 C.3       9 UNK        -0.1966 
     27 N         -70.9167   28.9708  -74.2913 N.am      9 UNK        -0.4218 
     28 C         -71.7090   28.2435  -75.0884 C.2       9 UNK         0.5020 
     29 O         -72.2290   28.6783  -76.1204 O.2       9 UNK        -0.5274 
     30 CA        -71.9929   26.8095  -74.6144 C.3       8 UNK         0.0270 
     31 CB        -73.0621   26.8164  -73.5083 C.3       8 UNK        -0.1976 
     32 N         -72.4300   25.9456  -75.7151 N.am      8 UNK        -0.4313 
     33 C         -71.5990   25.4066  -76.6208 C.2       8 UNK         0.5041 
     34 O         -70.3793   25.5853  -76.6025 O.2       8 UNK        -0.5577 
     35 CA        -72.1853   24.4826  -77.7089 C.3       7 UNK         0.0284 
     36 CB        -71.6933   23.0383  -77.5083 C.3       7 UNK        -0.1958 
     37 N         -73.6481   24.4721  -77.7491 N.am      7 UNK        -0.4454 
     38 C         -74.4062   25.3448  -78.4251 C.2       7 UNK         0.5089 
     39 O         -73.9503   26.2277  -79.1524 O.2       7 UNK        -0.5125 
     40 CA        -75.9355   25.2211  -78.2555 C.3       6 UNK         0.0408 
     41 CB        -76.5460   24.4821  -79.4563 C.3       6 UNK        -0.1791 
     42 N         -76.3760   24.5742  -77.0088 N.am      6 UNK        -0.4762 
     43 C         -76.0788   25.0103  -75.7728 C.2       6 UNK         0.5007 
     44 O         -75.3337   25.9683  -75.5757 O.2       6 UNK        -0.5032 
     45 CA        -76.6474   24.2441  -74.5610 C.3       5 UNK         0.0783 
     46 C46       -77.0674   25.2086  -73.4252 C.3       11 UNK        -0.0857 
     47 S47       -77.4918   24.3263  -71.8837 S.3       11 UNK        -0.2512 
     48 C48       -76.3863   25.1255  -70.6754 C.3       11 UNK         0.0225 
     49 N         -77.7549   23.3755  -74.9648 N.am      5 UNK        -0.4615 
     50 C         -77.7433   22.0374  -74.9212 C.2       4 UNK         0.5053 
     51 O         -76.7707   21.3732  -74.5624 O.2       4 UNK        -0.5105 
     52 CA        -79.0272   21.3020  -75.3537 C.3       4 UNK         0.0263 
     53 CB        -79.8413   20.8848  -74.1182 C.3       4 UNK        -0.1981 
     54 N         -79.8859   22.0838  -76.2469 N.am      4 UNK        -0.4224 
     55 C         -79.5517   22.4776  -77.4835 C.2       3 UNK         0.4895 
     56 O         -78.4984   22.1641  -78.0382 O.2       3 UNK        -0.5091 
     57 CA        -80.5335   23.4152  -78.2099 C.3       3 UNK         0.0250 
     58 CB        -81.4447   22.6094  -79.1496 C.3       3 UNK        -0.1996 
     59 N         -81.3619   24.2502  -77.3283 N.am      3 UNK        -0.4254 
     60 C         -80.9028   25.1247  -76.4197 C.2       2 UNK         0.5004 
     61 O         -79.7041   25.2756  -76.1740 O.2       2 UNK        -0.5226 
     62 CA        -81.9699   25.9723  -75.6961 C.3       2 UNK         0.0269 
     63 CB        -83.0937   25.1062  -75.0825 C.3       2 UNK        -0.1926 
     64 N         -81.4052   26.8890  -74.6947 N.am      2 UNK        -0.4687 
     65 C         -80.8062   26.5823  -73.5319 C.2       1 UNK         0.5165 
     66 O         -80.7046   25.4366  -73.0921 O.2       1 UNK        -0.5079 
     67 H67       -79.7957   31.2534  -74.6247 H         1 UNK         0.0900 
     68 H68       -79.1663   30.5021  -76.0939 H         1 UNK         0.0900 
     69 H69       -78.0575   31.0209  -74.8215 H         1 UNK         0.0900 
     70 H70       -80.6996   29.7549  -73.2231 H         1 UNK         0.2959 
     71 H71       -79.2654   27.4540  -72.3536 H         1 UNK         0.1079 
     72 H72       -82.1913   28.0964  -71.7358 H         1 UNK         0.0837 
     73 H73       -81.1179   27.0966  -70.7971 H         1 UNK         0.0837 
     74 H74       -79.4020   29.5171  -68.4294 H         1 UNK         0.0685 
     75 H75       -80.0664   27.9238  -68.6896 H         1 UNK         0.0685 
     76 H76       -78.6133   26.2332  -69.5724 H         1 UNK         0.1434 
     77 H77       -74.8905   27.2893  -71.4190 H         1 UNK         0.1329 
     78 H78       -77.6142   30.3588  -70.1860 H         1 UNK         0.1335 
     79 H79       -75.3499   30.9372  -70.8418 H         1 UNK         0.0680 
     80 H80       -74.1507   29.7081  -71.1776 H         1 UNK         0.0680 
     81 H81       -74.1150   32.2015  -72.5336 H         1 UNK         0.1032 
     82 H82       -75.6194   32.6075  -73.3078 H         1 UNK         0.1032 
     83 H83       -74.6645   31.7739  -75.5168 H         1 UNK         0.0461 
     84 H84       -74.4870   35.4705  -75.1218 H         1 UNK         0.3453 
     85 H85       -75.5591   34.2532  -74.4869 H         1 UNK         0.3453 
     86 H86       -72.8379   30.5526  -75.5647 H         1 UNK         0.2984 
     87 H87       -70.3683   30.5306  -75.5679 H         1 UNK         0.0554 
     88 H88       -68.4309   30.0313  -74.1085 H         1 UNK         0.0847 
     89 H89       -69.3430   30.5187  -72.6796 H         1 UNK         0.0847 
     90 H90       -68.9282   31.7023  -73.9112 H         1 UNK         0.0847 
     91 H91       -70.5691   28.5459  -73.4433 H         1 UNK         0.3141 
     92 H92       -71.0732   26.3929  -74.1973 H         1 UNK         0.0743 
     93 H93       -73.3423   25.8050  -73.2134 H         1 UNK         0.0784 
     94 H94       -72.6967   27.3251  -72.6156 H         1 UNK         0.0784 
     95 H95       -73.9666   27.3380  -73.8253 H         1 UNK         0.0784 
     96 H96       -73.4352   25.8443  -75.8291 H         1 UNK         0.3213 
     97 H97       -71.8051   24.8378  -78.6694 H         1 UNK         0.0855 
     98 H98       -72.0271   22.6258  -76.5553 H         1 UNK         0.0814 
     99 H99       -70.6034   22.9907  -77.5190 H         1 UNK         0.0814 
    100 H100      -72.0502   22.3829  -78.3030 H         1 UNK         0.0814 
    101 H101      -74.1169   23.7791  -77.1841 H         1 UNK         0.3105 
    102 H102      -76.3356   26.2370  -78.2465 H         1 UNK         0.0547 
    103 H103      -76.2309   24.9338  -80.3981 H         1 UNK         0.0837 
    104 H104      -76.2464   23.4336  -79.4801 H         1 UNK         0.0837 
    105 H105      -77.6342   24.5200  -79.4327 H         1 UNK         0.0837 
    106 H106      -76.9860   23.7720  -77.1027 H         1 UNK         0.3020 
    107 H107      -75.8154   23.6426  -74.1883 H         1 UNK         0.1245 
    108 H108      -77.9269   25.8042  -73.7338 H         1 UNK         0.0781 
    109 H109      -76.2716   25.9232  -73.2119 H         1 UNK         0.0781 
    110 H110      -75.3500   24.9854  -70.9872 H         1 UNK         0.0836 
    111 H111      -76.4882   24.6216  -69.7133 H         1 UNK         0.0836 
    112 H112      -78.5826   23.8628  -75.2975 H         1 UNK         0.3022 
    113 H113      -78.7228   20.3994  -75.8878 H         1 UNK         0.0747 
    114 H114      -80.7154   20.2958  -74.3967 H         1 UNK         0.0793 
    115 H115      -79.2409   20.2719  -73.4442 H         1 UNK         0.0793 
    116 H116      -80.1838   21.7516  -73.5507 H         1 UNK         0.0793 
    117 H117      -80.7680   22.3984  -75.8702 H         1 UNK         0.3047 
    118 H118      -79.9337   24.0936  -78.8192 H         1 UNK         0.0822 
    119 H119      -82.0678   23.2645  -79.7587 H         1 UNK         0.0807 
    120 H120      -82.1020   21.9369  -78.5968 H         1 UNK         0.0807 
    121 H121      -80.8560   21.9983  -79.8356 H         1 UNK         0.0807 
    122 H122      -82.3599   24.1885  -77.4707 H         1 UNK         0.2946 
    123 H123      -82.4187   26.6101  -76.4596 H         1 UNK         0.1144 
    124 H124      -83.7945   25.7150  -74.5111 H         1 UNK         0.0793 
    125 H125      -82.7001   24.3384  -74.4155 H         1 UNK         0.0793 
    126 H126      -83.6740   24.5982  -75.8531 H         1 UNK         0.0793 
    127 H127      -81.3953   27.8643  -74.9578 H         1 UNK         0.2896 
@<TRIPOS>BOND
     1    1    2 1    
     2    1   67 1    
     3    1   68 1    
     4    1   69 1    
     5    2    3 2    
     6    2    4 am   BACKBONE|DICT|INTERRES
     7    4    5 1    
     8    4   70 1    
     9    5    6 1    
    10    5   65 1    
    11    5   71 1    
    12    6    7 1    
    13    6   72 1    
    14    6   73 1    
    15    7    8 1    
    16    8    9 1    
    17    8   74 1    
    18    8   75 1    
    19    9   10 ar   
    20    9   14 ar   
    21   10   11 ar   
    22   10   76 1    
    23   11   12 ar   
    24   11   48 1    
    25   12   13 ar   
    26   12   77 1    
    27   13   14 ar   
    28   13   15 1    
    29   14   78 1    
    30   15   16 1    
    31   15   79 1    
    32   15   80 1    
    33   16   17 1    
    34   17   18 1    
    35   17   81 1    
    36   17   82 1    
    37   18   19 1    
    38   18   22 1    
    39   18   83 1    
    40   19   20 am   BACKBONE|DICT|INTERRES
    41   19   21 2    
    42   20   84 1    
    43   20   85 1    
    44   22   23 am   BACKBONE|DICT|INTERRES
    45   22   86 1    
    46   23   24 2    
    47   23   25 1    
    48   25   26 1    
    49   25   27 1    
    50   25   87 1    
    51   26   88 1    
    52   26   89 1    
    53   26   90 1    
    54   27   28 am   BACKBONE|DICT|INTERRES
    55   27   91 1    
    56   28   29 2    
    57   28   30 1    
    58   30   31 1    
    59   30   32 1    
    60   30   92 1    
    61   31   93 1    
    62   31   94 1    
    63   31   95 1    
    64   32   33 am   BACKBONE|DICT|INTERRES
    65   32   96 1    
    66   33   34 2    
    67   33   35 1    
    68   35   36 1    
    69   35   37 1    
    70   35   97 1    
    71   36   98 1    
    72   36   99 1    
    73   36  100 1    
    74   37   38 am   BACKBONE|DICT|INTERRES
    75   37  101 1    
    76   38   39 2    
    77   38   40 1    
    78   40   41 1    
    79   40   42 1    
    80   40  102 1    
    81   41  103 1    
    82   41  104 1    
    83   41  105 1    
    84   42   43 am   BACKBONE|DICT|INTERRES
    85   42  106 1    
    86   43   44 2    
    87   43   45 1    
    88   45   46 1    
    89   45   49 1    
    90   45  107 1    
    91   46   47 1    
    92   46  108 1    
    93   46  109 1    
    94   47   48 1    
    95   48  110 1    
    96   48  111 1    
    97   49   50 am   BACKBONE|DICT|INTERRES
    98   49  112 1    
    99   50   51 2    
   100   50   52 1    
   101   52   53 1    
   102   52   54 1    
   103   52  113 1    
   104   53  114 1    
   105   53  115 1    
   106   53  116 1    
   107   54   55 am   BACKBONE|DICT|INTERRES
   108   54  117 1    
   109   55   56 2    
   110   55   57 1    
   111   57   58 1    
   112   57   59 1    
   113   57  118 1    
   114   58  119 1    
   115   58  120 1    
   116   58  121 1    
   117   59   60 am   BACKBONE|DICT|INTERRES
   118   59  122 1    
   119   60   61 2    
   120   60   62 1    
   121   62   63 1    
   122   62   64 1    
   123   62  123 1    
   124   63  124 1    
   125   63  125 1    
   126   63  126 1    
   127   64   65 am   BACKBONE|DICT|INTERRES
   128   64  127 1    
   129   65   66 2    
@<TRIPOS>SUBSTRUCTURE
     1 UNK         1 GROUP             0       ****    0 ROOT    
