@<TRIPOS>MOLECULE
3R135
127   129    1
SMALL
USER_CHARGES


@<TRIPOS>ATOM
      1 CA        -80.8706   21.3646  -72.6968 C.3       0 UNK        -0.1998 
      2 C         -81.8856   22.4973  -72.7314 C.2       0 UNK         0.4909 
      3 O         -82.9433   22.3551  -73.3446 O.2       0 UNK        -0.5240 
      4 N         -81.5672   23.6273  -72.0860 N.am      1 UNK        -0.4739 
      5 CA        -82.4107   24.8307  -72.0238 C.3       1 UNK         0.0864 
      6 C6        -82.0219   25.7168  -70.8121 C.3       11 UNK        -0.0881 
      7 S7        -80.3283   26.4037  -70.9112 S.3       11 UNK        -0.2682 
      8 C8        -80.6838   28.1904  -70.8862 C.3       11 UNK         0.0289 
      9 C9        -79.5045   29.0377  -71.3500 C.ar      11 UNK        -0.0687 
     10 C10       -79.6700   29.9367  -72.4081 C.ar      11 UNK        -0.0823 
     11 C11       -78.6167   30.7609  -72.8132 C.ar      11 UNK        -0.0830 
     12 C12       -77.3887   30.6754  -72.1549 C.ar      11 UNK        -0.1021 
     13 C13       -77.1885   29.7524  -71.1213 C.ar      11 UNK        -0.0753 
     14 C14       -78.2624   28.9545  -70.7097 C.ar      11 UNK        -0.0933 
     15 C15       -75.8335   29.6079  -70.4277 C.3       11 UNK         0.0166 
     16 S16       -74.4106   29.9666  -71.5170 S.3       11 UNK        -0.2615 
     17 C17       -73.2473   28.6331  -71.0826 C.3       11 UNK        -0.0865 
     18 CA        -71.9299   28.7293  -71.8983 C.3       10 UNK         0.0862 
     19 C         -70.8546   27.7355  -71.3641 C.2       10 UNK         0.5551 
     20 N         -70.2316   26.8991  -72.1860 N.am      10 UNK        -0.7319 
     21 O         -70.5693   27.7296  -70.1690 O.2       10 UNK        -0.5018 
     22 N         -72.1866   28.6349  -73.3447 N.am      10 UNK        -0.4509 
     23 C         -71.4012   29.1301  -74.3074 C.2       10 UNK         0.4899 
     24 O         -70.3903   29.8010  -74.0908 O.2       10 UNK        -0.4839 
     25 CA        -71.8088   28.7783  -75.7541 C.3       9 UNK         0.0222 
     26 CB        -70.7530   29.1987  -76.7976 C.3       9 UNK        -0.1966 
     27 N         -72.1519   27.3581  -75.9161 N.am      9 UNK        -0.4218 
     28 C         -71.3896   26.3003  -75.5954 C.2       9 UNK         0.5020 
     29 O         -70.2478   26.3853  -75.1413 O.2       9 UNK        -0.5274 
     30 CA        -72.0111   24.9044  -75.7611 C.3       8 UNK         0.0270 
     31 CB        -72.5565   24.4091  -74.4135 C.3       8 UNK        -0.1976 
     32 N         -73.0658   24.8460  -76.7790 N.am      8 UNK        -0.4313 
     33 C         -72.8121   24.8116  -78.0949 C.2       8 UNK         0.5041 
     34 O         -71.6817   24.9015  -78.5763 O.2       8 UNK        -0.5577 
     35 CA        -74.0072   24.6303  -79.0355 C.3       7 UNK         0.0284 
     36 CB        -74.5604   23.1962  -78.9532 C.3       7 UNK        -0.1958 
     37 N         -75.0732   25.5887  -78.7394 N.am      7 UNK        -0.4454 
     38 C         -75.4435   26.5739  -79.5663 C.2       7 UNK         0.5089 
     39 O         -74.8799   26.8262  -80.6323 O.2       7 UNK        -0.5125 
     40 CA        -76.6744   27.4037  -79.1728 C.3       6 UNK         0.0408 
     41 CB        -77.9589   26.7249  -79.6753 C.3       6 UNK        -0.1791 
     42 N         -76.8060   27.6744  -77.7417 N.am      6 UNK        -0.4762 
     43 C         -76.0426   28.5363  -77.0545 C.2       6 UNK         0.5007 
     44 O         -75.0053   29.0385  -77.4867 O.2       6 UNK        -0.5032 
     45 CA        -76.5656   28.9229  -75.6596 C.3       5 UNK         0.0783 
     46 C46       -77.8679   29.7733  -75.7692 C.3       11 UNK        -0.0857 
     47 S47       -77.5917   31.5139  -75.3047 S.3       11 UNK        -0.2512 
     48 C48       -78.8063   31.7455  -73.9614 C.3       11 UNK         0.0225 
     49 N         -76.7724   27.7181  -74.8618 N.am      5 UNK        -0.4615 
     50 C         -75.8145   27.0722  -74.1864 C.2       4 UNK         0.5053 
     51 O         -74.6478   27.4522  -74.1075 O.2       4 UNK        -0.5105 
     52 CA        -76.2216   25.7434  -73.5255 C.3       4 UNK         0.0263 
     53 CB        -76.8125   26.0010  -72.1339 C.3       4 UNK        -0.1981 
     54 N         -77.1752   24.9778  -74.3313 N.am      4 UNK        -0.4224 
     55 C         -76.9413   24.5409  -75.5774 C.2       3 UNK         0.4895 
     56 O         -75.8580   24.6599  -76.1517 O.2       3 UNK        -0.5091 
     57 CA        -78.1253   23.9159  -76.3353 C.3       3 UNK         0.0250 
     58 CB        -78.1099   22.3878  -76.1763 C.3       3 UNK        -0.1996 
     59 N         -79.4424   24.4354  -75.9418 N.am      3 UNK        -0.4254 
     60 C         -79.8300   25.7206  -76.0096 C.2       2 UNK         0.5004 
     61 O         -79.1029   26.6380  -76.3901 O.2       2 UNK        -0.5226 
     62 CA        -81.2433   26.0356  -75.5112 C.3       2 UNK         0.0269 
     63 CB        -82.3001   25.6492  -76.5627 C.3       2 UNK        -0.1926 
     64 N         -81.4791   25.3487  -74.2417 N.am      2 UNK        -0.4687 
     65 C         -82.4323   25.6354  -73.3466 C.2       1 UNK         0.5165 
     66 O         -83.2913   26.5019  -73.5166 O.2       1 UNK        -0.5079 
     67 H67       -79.9717   21.6381  -72.1446 H         1 UNK         0.0900 
     68 H68       -80.5766   21.0917  -73.7100 H         1 UNK         0.0900 
     69 H69       -81.3062   20.4866  -72.2209 H         1 UNK         0.0900 
     70 H70       -80.6919   23.6905  -71.5844 H         1 UNK         0.2959 
     71 H71       -83.4391   24.4987  -71.8627 H         1 UNK         0.1079 
     72 H72       -82.7480   26.5228  -70.6904 H         1 UNK         0.0837 
     73 H73       -82.0922   25.1311  -69.8942 H         1 UNK         0.0837 
     74 H74       -81.5535   28.3850  -71.5159 H         1 UNK         0.0685 
     75 H75       -80.9615   28.4855  -69.8735 H         1 UNK         0.0685 
     76 H76       -80.6259   30.0052  -72.9092 H         1 UNK         0.1434 
     77 H77       -76.5824   31.3211  -72.4729 H         1 UNK         0.1329 
     78 H78       -78.1315   28.2549  -69.8954 H         1 UNK         0.1335 
     79 H79       -75.7998   30.2817  -69.5709 H         1 UNK         0.0680 
     80 H80       -75.7339   28.5963  -70.0314 H         1 UNK         0.0680 
     81 H81       -73.7294   27.6687  -71.2527 H         1 UNK         0.1032 
     82 H82       -73.0484   28.6984  -70.0111 H         1 UNK         0.1032 
     83 H83       -71.5126   29.7203  -71.7097 H         1 UNK         0.0461 
     84 H84       -69.5374   26.2735  -71.8101 H         1 UNK         0.3453 
     85 H85       -70.4051   26.9111  -73.1843 H         1 UNK         0.3453 
     86 H86       -73.0270   28.1265  -73.6153 H         1 UNK         0.2984 
     87 H87       -72.7206   29.3409  -75.9582 H         1 UNK         0.0554 
     88 H88       -71.0855   28.9707  -77.8102 H         1 UNK         0.0847 
     89 H89       -69.8004   28.6931  -76.6353 H         1 UNK         0.0847 
     90 H90       -70.5643   30.2720  -76.7530 H         1 UNK         0.0847 
     91 H91       -73.0957   27.1730  -76.2262 H         1 UNK         0.3141 
     92 H92       -71.2128   24.2230  -76.0641 H         1 UNK         0.0743 
     93 H93       -73.2086   25.1487  -73.9541 H         1 UNK         0.0784 
     94 H94       -73.1108   23.4760  -74.5158 H         1 UNK         0.0784 
     95 H95       -71.7406   24.2294  -73.7121 H         1 UNK         0.0784 
     96 H96       -74.0283   24.7539  -76.4586 H         1 UNK         0.3213 
     97 H97       -73.6364   24.7731  -80.0529 H         1 UNK         0.0855 
     98 H98       -74.9415   22.9553  -77.9608 H         1 UNK         0.0814 
     99 H99       -73.7842   22.4667  -79.1881 H         1 UNK         0.0814 
    100 H100      -75.3712   23.0457  -79.6660 H         1 UNK         0.0814 
    101 H101      -75.5620   25.4663  -77.8574 H         1 UNK         0.3105 
    102 H102      -76.5901   28.3669  -79.6810 H         1 UNK         0.0547 
    103 H103      -77.9117   26.5448  -80.7501 H         1 UNK         0.0837 
    104 H104      -78.1248   25.7628  -79.1907 H         1 UNK         0.0837 
    105 H105      -78.8350   27.3467  -79.4901 H         1 UNK         0.0837 
    106 H106      -77.6367   27.3013  -77.2848 H         1 UNK         0.3020 
    107 H107      -75.7845   29.5130  -75.1729 H         1 UNK         0.1245 
    108 H108      -78.6553   29.3559  -75.1404 H         1 UNK         0.0781 
    109 H109      -78.2986   29.7676  -76.7728 H         1 UNK         0.0781 
    110 H110      -79.8102   31.6659  -74.3813 H         1 UNK         0.0836 
    111 H111      -78.7153   32.7613  -73.5747 H         1 UNK         0.0836 
    112 H112      -77.6864   27.2918  -74.9387 H         1 UNK         0.3022 
    113 H113      -75.3306   25.1294  -73.4037 H         1 UNK         0.0747 
    114 H114      -77.0659   25.0713  -71.6246 H         1 UNK         0.0793 
    115 H115      -76.1026   26.5356  -71.5018 H         1 UNK         0.0793 
    116 H116      -77.7136   26.6099  -72.1961 H         1 UNK         0.0793 
    117 H117      -78.0891   24.8278  -73.9335 H         1 UNK         0.3047 
    118 H118      -77.9856   24.1481  -77.3925 H         1 UNK         0.0822 
    119 H119      -78.8753   21.9160  -76.7928 H         1 UNK         0.0807 
    120 H120      -78.2768   22.0857  -75.1416 H         1 UNK         0.0807 
    121 H121      -77.1491   21.9730  -76.4858 H         1 UNK         0.0807 
    122 H122      -80.1283   23.7450  -75.6738 H         1 UNK         0.2946 
    123 H123      -81.2962   27.1132  -75.3376 H         1 UNK         0.1144 
    124 H124      -82.0867   26.1222  -77.5224 H         1 UNK         0.0793 
    125 H125      -83.2972   25.9709  -76.2620 H         1 UNK         0.0793 
    126 H126      -82.3338   24.5718  -76.7278 H         1 UNK         0.0793 
    127 H127      -80.8016   24.6508  -73.9743 H         1 UNK         0.2896 
@<TRIPOS>BOND
     1    1    2 1    
     2    1   67 1    
     3    1   68 1    
     4    1   69 1    
     5    2    3 2    
     6    2    4 am   BACKBONE|DICT|INTERRES
     7    4    5 1    
     8    4   70 1    
     9    5    6 1    
    10    5   65 1    
    11    5   71 1    
    12    6    7 1    
    13    6   72 1    
    14    6   73 1    
    15    7    8 1    
    16    8    9 1    
    17    8   74 1    
    18    8   75 1    
    19    9   10 ar   
    20    9   14 ar   
    21   10   11 ar   
    22   10   76 1    
    23   11   12 ar   
    24   11   48 1    
    25   12   13 ar   
    26   12   77 1    
    27   13   14 ar   
    28   13   15 1    
    29   14   78 1    
    30   15   16 1    
    31   15   79 1    
    32   15   80 1    
    33   16   17 1    
    34   17   18 1    
    35   17   81 1    
    36   17   82 1    
    37   18   19 1    
    38   18   22 1    
    39   18   83 1    
    40   19   20 am   BACKBONE|DICT|INTERRES
    41   19   21 2    
    42   20   84 1    
    43   20   85 1    
    44   22   23 am   BACKBONE|DICT|INTERRES
    45   22   86 1    
    46   23   24 2    
    47   23   25 1    
    48   25   26 1    
    49   25   27 1    
    50   25   87 1    
    51   26   88 1    
    52   26   89 1    
    53   26   90 1    
    54   27   28 am   BACKBONE|DICT|INTERRES
    55   27   91 1    
    56   28   29 2    
    57   28   30 1    
    58   30   31 1    
    59   30   32 1    
    60   30   92 1    
    61   31   93 1    
    62   31   94 1    
    63   31   95 1    
    64   32   33 am   BACKBONE|DICT|INTERRES
    65   32   96 1    
    66   33   34 2    
    67   33   35 1    
    68   35   36 1    
    69   35   37 1    
    70   35   97 1    
    71   36   98 1    
    72   36   99 1    
    73   36  100 1    
    74   37   38 am   BACKBONE|DICT|INTERRES
    75   37  101 1    
    76   38   39 2    
    77   38   40 1    
    78   40   41 1    
    79   40   42 1    
    80   40  102 1    
    81   41  103 1    
    82   41  104 1    
    83   41  105 1    
    84   42   43 am   BACKBONE|DICT|INTERRES
    85   42  106 1    
    86   43   44 2    
    87   43   45 1    
    88   45   46 1    
    89   45   49 1    
    90   45  107 1    
    91   46   47 1    
    92   46  108 1    
    93   46  109 1    
    94   47   48 1    
    95   48  110 1    
    96   48  111 1    
    97   49   50 am   BACKBONE|DICT|INTERRES
    98   49  112 1    
    99   50   51 2    
   100   50   52 1    
   101   52   53 1    
   102   52   54 1    
   103   52  113 1    
   104   53  114 1    
   105   53  115 1    
   106   53  116 1    
   107   54   55 am   BACKBONE|DICT|INTERRES
   108   54  117 1    
   109   55   56 2    
   110   55   57 1    
   111   57   58 1    
   112   57   59 1    
   113   57  118 1    
   114   58  119 1    
   115   58  120 1    
   116   58  121 1    
   117   59   60 am   BACKBONE|DICT|INTERRES
   118   59  122 1    
   119   60   61 2    
   120   60   62 1    
   121   62   63 1    
   122   62   64 1    
   123   62  123 1    
   124   63  124 1    
   125   63  125 1    
   126   63  126 1    
   127   64   65 am   BACKBONE|DICT|INTERRES
   128   64  127 1    
   129   65   66 2    
@<TRIPOS>SUBSTRUCTURE
     1 UNK         1 GROUP             0       ****    0 ROOT    
