@<TRIPOS>MOLECULE
3R135
127   129    1
SMALL
USER_CHARGES


@<TRIPOS>ATOM
      1 CA        -85.1778   26.4278  -70.6544 C.3       0 UNK        -0.1998 
      2 C         -84.8604   26.5714  -72.1351 C.2       0 UNK         0.4909 
      3 O         -85.3742   25.8036  -72.9492 O.2       0 UNK        -0.5240 
      4 N         -84.0196   27.5518  -72.4898 N.am      1 UNK        -0.4739 
      5 CA        -83.5640   27.8249  -73.8598 C.3       1 UNK         0.0864 
      6 C6        -82.9457   29.2416  -74.0015 C.3       11 UNK        -0.0881 
      7 S7        -81.7588   29.6783  -72.6824 S.3       11 UNK        -0.2682 
      8 C8        -80.1780   29.4706  -73.5502 C.3       11 UNK         0.0289 
      9 C9        -79.0171   29.4717  -72.5703 C.ar      11 UNK        -0.0687 
     10 C10       -78.7839   28.3444  -71.7805 C.ar      11 UNK        -0.0823 
     11 C11       -77.6700   28.2860  -70.9403 C.ar      11 UNK        -0.0830 
     12 C12       -76.8223   29.3936  -70.8436 C.ar      11 UNK        -0.1021 
     13 C13       -77.0444   30.5332  -71.6265 C.ar      11 UNK        -0.0753 
     14 C14       -78.1499   30.5654  -72.4845 C.ar      11 UNK        -0.0933 
     15 C15       -76.1024   31.7355  -71.5670 C.3       11 UNK         0.0166 
     16 S16       -74.3322   31.3064  -71.4130 S.3       11 UNK        -0.2615 
     17 C17       -74.0325   30.3714  -72.9525 C.3       11 UNK        -0.0865 
     18 CA        -72.5655   29.8805  -73.0759 C.3       10 UNK         0.0862 
     19 C         -72.2388   28.7334  -72.0849 C.2       10 UNK         0.5551 
     20 N         -71.3715   28.9774  -71.1122 N.am      10 UNK        -0.7319 
     21 O         -72.7811   27.6346  -72.1755 O.2       10 UNK        -0.5018 
     22 N         -72.2948   29.4244  -74.4417 N.am      10 UNK        -0.4509 
     23 C         -71.3177   29.8689  -75.2395 C.2       10 UNK         0.4899 
     24 O         -70.5334   30.7677  -74.9296 O.2       10 UNK        -0.4839 
     25 CA        -71.2163   29.2021  -76.6264 C.3       9 UNK         0.0222 
     26 CB        -69.9454   29.6021  -77.4064 C.3       9 UNK        -0.1966 
     27 N         -71.3673   27.7436  -76.5714 N.am      9 UNK        -0.4218 
     28 C         -70.5721   26.8562  -75.9530 C.2       9 UNK         0.5020 
     29 O         -69.5311   27.1615  -75.3689 O.2       9 UNK        -0.5274 
     30 CA        -70.9994   25.3726  -75.9678 C.3       8 UNK         0.0270 
     31 CB        -71.2975   24.8859  -74.5394 C.3       8 UNK        -0.1976 
     32 N         -72.1614   25.0915  -76.8183 N.am      8 UNK        -0.4313 
     33 C         -72.1367   25.0212  -78.1565 C.2       8 UNK         0.5041 
     34 O         -71.1083   25.1163  -78.8270 O.2       8 UNK        -0.5577 
     35 CA        -73.4914   24.8590  -78.8713 C.3       7 UNK         0.0284 
     36 CB        -73.8877   23.3767  -78.9595 C.3       7 UNK        -0.1958 
     37 N         -74.5719   25.6189  -78.2345 N.am      7 UNK        -0.4454 
     38 C         -74.6102   26.9552  -78.1270 C.2       7 UNK         0.5089 
     39 O         -73.7617   27.7065  -78.6063 O.2       7 UNK        -0.5125 
     40 CA        -75.7423   27.5498  -77.2713 C.3       6 UNK         0.0408 
     41 CB        -77.0543   27.6444  -78.0651 C.3       6 UNK        -0.1791 
     42 N         -75.9507   26.7956  -76.0317 N.am      6 UNK        -0.4762 
     43 C         -75.0344   26.6897  -75.0562 C.2       6 UNK         0.5007 
     44 O         -73.9462   27.2586  -75.0901 O.2       6 UNK        -0.5032 
     45 CA        -75.3805   25.7845  -73.8596 C.3       5 UNK         0.0783 
     46 C46       -76.1901   26.5980  -72.8340 C.3       11 UNK        -0.0857 
     47 S47       -76.7713   25.6633  -71.3749 S.3       11 UNK        -0.2512 
     48 C48       -77.3190   26.9861  -70.2260 C.3       11 UNK         0.0225 
     49 N         -76.0746   24.5744  -74.3012 N.am      5 UNK        -0.4615 
     50 C         -75.4944   23.5935  -75.0046 C.2       4 UNK         0.5053 
     51 O         -74.3041   23.5884  -75.3171 O.2       4 UNK        -0.5105 
     52 CA        -76.4110   22.4572  -75.4872 C.3       4 UNK         0.0263 
     53 CB        -76.6039   21.4095  -74.3796 C.3       4 UNK        -0.1981 
     54 N         -77.7179   22.9428  -75.9401 N.am      4 UNK        -0.4224 
     55 C         -77.9000   23.7818  -76.9708 C.2       3 UNK         0.4895 
     56 O         -76.9858   24.1824  -77.6903 O.2       3 UNK        -0.5091 
     57 CA        -79.3290   24.2869  -77.2311 C.3       3 UNK         0.0250 
     58 CB        -79.9910   23.4658  -78.3486 C.3       3 UNK        -0.1996 
     59 N         -80.1883   24.2749  -76.0432 N.am      3 UNK        -0.4254 
     60 C         -80.0349   25.0715  -74.9757 C.2       2 UNK         0.5004 
     61 O         -79.1235   25.8934  -74.8540 O.2       2 UNK        -0.5226 
     62 CA        -81.0522   24.8775  -73.8359 C.3       2 UNK         0.0269 
     63 CB        -80.3435   24.4210  -72.5498 C.3       2 UNK        -0.1926 
     64 N         -81.8601   26.0676  -73.5490 N.am      2 UNK        -0.4687 
     65 C         -82.6467   26.7157  -74.4237 C.2       1 UNK         0.5165 
     66 O         -82.7143   26.4385  -75.6221 O.2       1 UNK        -0.5079 
     67 H67       -86.2486   26.5406  -70.4876 H         1 UNK         0.0900 
     68 H68       -84.6604   27.1746  -70.0523 H         1 UNK         0.0900 
     69 H69       -84.8794   25.4412  -70.3009 H         1 UNK         0.0900 
     70 H70       -83.6285   28.1595  -71.7827 H         1 UNK         0.2959 
     71 H71       -84.4547   27.8085  -74.4927 H         1 UNK         0.1079 
     72 H72       -82.4881   29.3783  -74.9836 H         1 UNK         0.0837 
     73 H73       -83.7486   29.9792  -73.9578 H         1 UNK         0.0837 
     74 H74       -80.0647   30.2639  -74.2907 H         1 UNK         0.0685 
     75 H75       -80.1779   28.5286  -74.1012 H         1 UNK         0.0685 
     76 H76       -79.4339   27.4859  -71.8720 H         1 UNK         0.1434 
     77 H77       -75.9591   29.3481  -70.1940 H         1 UNK         0.1329 
     78 H78       -78.3282   31.4372  -73.0992 H         1 UNK         0.1335 
     79 H79       -76.2257   32.3608  -72.4528 H         1 UNK         0.0680 
     80 H80       -76.3850   32.3520  -70.7129 H         1 UNK         0.0680 
     81 H81       -74.2710   31.0318  -73.7877 H         1 UNK         0.1032 
     82 H82       -74.7310   29.5368  -73.0230 H         1 UNK         0.1032 
     83 H83       -71.9166   30.7282  -72.8462 H         1 UNK         0.0461 
     84 H84       -71.1562   28.2455  -70.4539 H         1 UNK         0.3453 
     85 H85       -70.9331   29.8805  -71.0212 H         1 UNK         0.3453 
     86 H86       -72.8514   28.6241  -74.7427 H         1 UNK         0.2984 
     87 H87       -72.0729   29.5663  -77.1951 H         1 UNK         0.0554 
     88 H88       -69.9085   30.6805  -77.5650 H         1 UNK         0.0847 
     89 H89       -69.9185   29.1303  -78.3886 H         1 UNK         0.0847 
     90 H90       -69.0359   29.3223  -76.8742 H         1 UNK         0.0847 
     91 H91       -72.2120   27.3880  -77.0022 H         1 UNK         0.3141 
     92 H92       -70.1523   24.7987  -76.3492 H         1 UNK         0.0743 
     93 H93       -70.4236   24.9990  -73.8965 H         1 UNK         0.0784 
     94 H94       -72.1087   25.4535  -74.0831 H         1 UNK         0.0784 
     95 H95       -71.5746   23.8316  -74.5260 H         1 UNK         0.0784 
     96 H96       -73.0420   24.9274  -76.3414 H         1 UNK         0.3213 
     97 H97       -73.3750   25.2419  -79.8874 H         1 UNK         0.0855 
     98 H98       -74.0364   22.9381  -77.9724 H         1 UNK         0.0814 
     99 H99       -73.1139   22.7951  -79.4624 H         1 UNK         0.0814 
    100 H100      -74.8110   23.2462  -79.5244 H         1 UNK         0.0814 
    101 H101      -75.3522   25.0830  -77.8589 H         1 UNK         0.3105 
    102 H102      -75.4492   28.5637  -76.9905 H         1 UNK         0.0547 
    103 H103      -76.9338   28.2968  -78.9308 H         1 UNK         0.0837 
    104 H104      -77.3784   26.6738  -78.4386 H         1 UNK         0.0837 
    105 H105      -77.8594   28.0578  -77.4574 H         1 UNK         0.0837 
    106 H106      -76.8290   26.3049  -75.9280 H         1 UNK         0.3020 
    107 H107      -74.4416   25.4849  -73.3883 H         1 UNK         0.1245 
    108 H108      -77.0634   27.0318  -73.3236 H         1 UNK         0.0781 
    109 H109      -75.5806   27.4292  -72.4773 H         1 UNK         0.0781 
    110 H110      -78.1839   26.6335  -69.6626 H         1 UNK         0.0836 
    111 H111      -76.5285   27.1569  -69.4936 H         1 UNK         0.0836 
    112 H112      -77.0630   24.5275  -74.0991 H         1 UNK         0.3022 
    113 H113      -75.9212   21.9748  -76.3359 H         1 UNK         0.0747 
    114 H114      -75.6423   21.0220  -74.0395 H         1 UNK         0.0793 
    115 H115      -77.1861   20.5590  -74.7346 H         1 UNK         0.0793 
    116 H116      -77.1128   21.8267  -73.5096 H         1 UNK         0.0793 
    117 H117      -78.5263   22.6495  -75.4121 H         1 UNK         0.3047 
    118 H118      -79.2503   25.3217  -77.5704 H         1 UNK         0.0822 
    119 H119      -80.9705   23.8674  -78.6094 H         1 UNK         0.0807 
    120 H120      -80.1200   22.4212  -78.0625 H         1 UNK         0.0807 
    121 H121      -79.3850   23.4825  -79.2558 H         1 UNK         0.0807 
    122 H122      -80.9714   23.6372  -76.0653 H         1 UNK         0.2946 
    123 H123      -81.7499   24.0888  -74.1261 H         1 UNK         0.1144 
    124 H124      -79.7572   23.5178  -72.7239 H         1 UNK         0.0793 
    125 H125      -81.0587   24.1931  -71.7594 H         1 UNK         0.0793 
    126 H126      -79.6596   25.1815  -72.1743 H         1 UNK         0.0793 
    127 H127      -81.8777   26.3809  -72.5899 H         1 UNK         0.2896 
@<TRIPOS>BOND
     1    1    2 1    
     2    1   67 1    
     3    1   68 1    
     4    1   69 1    
     5    2    3 2    
     6    2    4 am   BACKBONE|DICT|INTERRES
     7    4    5 1    
     8    4   70 1    
     9    5    6 1    
    10    5   65 1    
    11    5   71 1    
    12    6    7 1    
    13    6   72 1    
    14    6   73 1    
    15    7    8 1    
    16    8    9 1    
    17    8   74 1    
    18    8   75 1    
    19    9   10 ar   
    20    9   14 ar   
    21   10   11 ar   
    22   10   76 1    
    23   11   12 ar   
    24   11   48 1    
    25   12   13 ar   
    26   12   77 1    
    27   13   14 ar   
    28   13   15 1    
    29   14   78 1    
    30   15   16 1    
    31   15   79 1    
    32   15   80 1    
    33   16   17 1    
    34   17   18 1    
    35   17   81 1    
    36   17   82 1    
    37   18   19 1    
    38   18   22 1    
    39   18   83 1    
    40   19   20 am   BACKBONE|DICT|INTERRES
    41   19   21 2    
    42   20   84 1    
    43   20   85 1    
    44   22   23 am   BACKBONE|DICT|INTERRES
    45   22   86 1    
    46   23   24 2    
    47   23   25 1    
    48   25   26 1    
    49   25   27 1    
    50   25   87 1    
    51   26   88 1    
    52   26   89 1    
    53   26   90 1    
    54   27   28 am   BACKBONE|DICT|INTERRES
    55   27   91 1    
    56   28   29 2    
    57   28   30 1    
    58   30   31 1    
    59   30   32 1    
    60   30   92 1    
    61   31   93 1    
    62   31   94 1    
    63   31   95 1    
    64   32   33 am   BACKBONE|DICT|INTERRES
    65   32   96 1    
    66   33   34 2    
    67   33   35 1    
    68   35   36 1    
    69   35   37 1    
    70   35   97 1    
    71   36   98 1    
    72   36   99 1    
    73   36  100 1    
    74   37   38 am   BACKBONE|DICT|INTERRES
    75   37  101 1    
    76   38   39 2    
    77   38   40 1    
    78   40   41 1    
    79   40   42 1    
    80   40  102 1    
    81   41  103 1    
    82   41  104 1    
    83   41  105 1    
    84   42   43 am   BACKBONE|DICT|INTERRES
    85   42  106 1    
    86   43   44 2    
    87   43   45 1    
    88   45   46 1    
    89   45   49 1    
    90   45  107 1    
    91   46   47 1    
    92   46  108 1    
    93   46  109 1    
    94   47   48 1    
    95   48  110 1    
    96   48  111 1    
    97   49   50 am   BACKBONE|DICT|INTERRES
    98   49  112 1    
    99   50   51 2    
   100   50   52 1    
   101   52   53 1    
   102   52   54 1    
   103   52  113 1    
   104   53  114 1    
   105   53  115 1    
   106   53  116 1    
   107   54   55 am   BACKBONE|DICT|INTERRES
   108   54  117 1    
   109   55   56 2    
   110   55   57 1    
   111   57   58 1    
   112   57   59 1    
   113   57  118 1    
   114   58  119 1    
   115   58  120 1    
   116   58  121 1    
   117   59   60 am   BACKBONE|DICT|INTERRES
   118   59  122 1    
   119   60   61 2    
   120   60   62 1    
   121   62   63 1    
   122   62   64 1    
   123   62  123 1    
   124   63  124 1    
   125   63  125 1    
   126   63  126 1    
   127   64   65 am   BACKBONE|DICT|INTERRES
   128   64  127 1    
   129   65   66 2    
@<TRIPOS>SUBSTRUCTURE
     1 UNK         1 GROUP             0       ****    0 ROOT    
