@<TRIPOS>MOLECULE
3R135
127   129    1
SMALL
USER_CHARGES


@<TRIPOS>ATOM
      1 CA        -80.4134   25.1005  -71.6356 C.3       0 UNK        -0.1998 
      2 C         -80.2105   26.2330  -72.6294 C.2       0 UNK         0.4909 
      3 O         -79.4777   26.0690  -73.6079 O.2       0 UNK        -0.5240 
      4 N         -80.8738   27.3731  -72.3784 N.am      1 UNK        -0.4739 
      5 CA        -80.7515   28.6508  -73.1011 C.3       1 UNK         0.0864 
      6 C6        -79.3642   29.3195  -72.8661 C.3       11 UNK        -0.0881 
      7 S7        -79.3631   30.3566  -71.3651 S.3       11 UNK        -0.2682 
      8 C8        -78.9132   29.1742  -70.0536 C.3       11 UNK         0.0289 
      9 C9        -77.4855   28.6561  -70.1667 C.ar      11 UNK        -0.0687 
     10 C10       -77.2348   27.2824  -70.0966 C.ar      11 UNK        -0.0823 
     11 C11       -75.9266   26.7924  -70.1582 C.ar      11 UNK        -0.0830 
     12 C12       -74.8643   27.6897  -70.3055 C.ar      11 UNK        -0.1021 
     13 C13       -75.1009   29.0666  -70.3655 C.ar      11 UNK        -0.0753 
     14 C14       -76.4116   29.5440  -70.2884 C.ar      11 UNK        -0.0933 
     15 C15       -73.9353   30.0367  -70.4763 C.3       11 UNK         0.0166 
     16 S16       -73.3844   30.2347  -72.1970 S.3       11 UNK        -0.2615 
     17 C17       -74.5899   31.4293  -72.8739 C.3       11 UNK        -0.0865 
     18 CA        -75.7033   30.7845  -73.7421 C.3       10 UNK         0.0862 
     19 C         -76.6154   31.8903  -74.3425 C.2       10 UNK         0.5551 
     20 N         -77.6182   32.3396  -73.6015 N.am      10 UNK        -0.7319 
     21 O         -76.3870   32.3864  -75.4445 O.2       10 UNK        -0.5018 
     22 N         -75.1427   29.8935  -74.7663 N.am      10 UNK        -0.4509 
     23 C         -75.8362   29.0429  -75.5285 C.2       10 UNK         0.4899 
     24 O         -77.0530   28.8809  -75.4423 O.2       10 UNK        -0.4839 
     25 CA        -75.0474   28.1952  -76.5441 C.3       9 UNK         0.0222 
     26 CB        -74.9805   28.8832  -77.9202 C.3       9 UNK        -0.1966 
     27 N         -73.7224   27.7530  -76.0850 N.am      9 UNK        -0.4218 
     28 C         -72.6026   28.4601  -75.8696 C.2       9 UNK         0.5020 
     29 O         -72.5249   29.6781  -76.0322 O.2       9 UNK        -0.5274 
     30 CA        -71.3614   27.6981  -75.3706 C.3       8 UNK         0.0270 
     31 CB        -71.2364   27.8083  -73.8428 C.3       8 UNK        -0.1976 
     32 N         -71.3790   26.2797  -75.7426 N.am      8 UNK        -0.4313 
     33 C         -70.4074   25.6473  -76.4155 C.2       8 UNK         0.5041 
     34 O         -69.3654   26.1884  -76.7893 O.2       8 UNK        -0.5577 
     35 CA        -70.6191   24.1516  -76.7266 C.3       7 UNK         0.0284 
     36 CB        -69.9320   23.2806  -75.6622 C.3       7 UNK        -0.1958 
     37 N         -72.0296   23.7671  -76.8255 N.am      7 UNK        -0.4454 
     38 C         -72.8696   24.1902  -77.7792 C.2       7 UNK         0.5089 
     39 O         -72.5185   24.8694  -78.7441 O.2       7 UNK        -0.5125 
     40 CA        -74.3573   23.8211  -77.6302 C.3       6 UNK         0.0408 
     41 CB        -74.7123   22.6583  -78.5701 C.3       6 UNK        -0.1791 
     42 N         -74.8290   23.4952  -76.2762 N.am      6 UNK        -0.4762 
     43 C         -74.7148   24.2439  -75.1688 C.2       6 UNK         0.5007 
     44 O         -73.9769   25.2268  -75.0931 O.2       6 UNK        -0.5032 
     45 CA        -75.6100   23.8570  -73.9700 C.3       5 UNK         0.0783 
     46 C46       -75.4442   24.8338  -72.7772 C.3       11 UNK        -0.0857 
     47 S47       -76.4270   24.3147  -71.3338 S.3       11 UNK        -0.2512 
     48 C48       -75.6586   25.2997  -70.0111 C.3       11 UNK         0.0225 
     49 N         -77.0084   23.7817  -74.4052 N.am      5 UNK        -0.4615 
     50 C         -77.5766   22.7496  -75.0418 C.2       4 UNK         0.5053 
     51 O         -76.9998   21.6852  -75.2651 O.2       4 UNK        -0.5105 
     52 CA        -78.9901   22.9811  -75.5941 C.3       4 UNK         0.0263 
     53 CB        -80.0540   22.6527  -74.5377 C.3       4 UNK        -0.1981 
     54 N         -79.1493   24.3621  -76.0584 N.am      4 UNK        -0.4224 
     55 C         -78.6380   24.8238  -77.2107 C.2       3 UNK         0.4895 
     56 O         -78.0477   24.1108  -78.0239 O.2       3 UNK        -0.5091 
     57 CA        -78.7937   26.3312  -77.4927 C.3       3 UNK         0.0250 
     58 CB        -78.6548   26.6843  -78.9883 C.3       3 UNK        -0.1996 
     59 N         -80.0178   26.9084  -76.9293 N.am      3 UNK        -0.4254 
     60 C         -81.2903   26.5636  -77.1797 C.2       2 UNK         0.5004 
     61 O         -81.6158   25.7109  -78.0073 O.2       2 UNK        -0.5226 
     62 CA        -82.3808   27.2693  -76.3414 C.3       2 UNK         0.0269 
     63 CB        -83.6904   26.4599  -76.2855 C.3       2 UNK        -0.1926 
     64 N         -81.9487   27.5546  -74.9671 N.am      2 UNK        -0.4687 
     65 C         -81.1590   28.5714  -74.5931 C.2       1 UNK         0.5165 
     66 O         -80.7598   29.4191  -75.3920 O.2       1 UNK        -0.5079 
     67 H67       -81.1901   24.4227  -71.9877 H         1 UNK         0.0900 
     68 H68       -79.4904   24.5345  -71.5138 H         1 UNK         0.0900 
     69 H69       -80.7053   25.4755  -70.6549 H         1 UNK         0.0900 
     70 H70       -81.4917   27.4036  -71.5789 H         1 UNK         0.2959 
     71 H71       -81.5156   29.3035  -72.6755 H         1 UNK         0.1079 
     72 H72       -79.0876   29.9844  -73.6844 H         1 UNK         0.0837 
     73 H73       -78.5599   28.5833  -72.8215 H         1 UNK         0.0837 
     74 H74       -79.0230   29.6708  -69.0888 H         1 UNK         0.0685 
     75 H75       -79.6295   28.3521  -70.0557 H         1 UNK         0.0685 
     76 H76       -78.0559   26.5888  -69.9785 H         1 UNK         0.1434 
     77 H77       -73.8484   27.3215  -70.3530 H         1 UNK         0.1329 
     78 H78       -76.5977   30.6085  -70.3204 H         1 UNK         0.1335 
     79 H79       -73.0976   29.6622  -69.8860 H         1 UNK         0.0680 
     80 H80       -74.1921   31.0075  -70.0496 H         1 UNK         0.0680 
     81 H81       -74.0257   32.1518  -73.4672 H         1 UNK         0.1032 
     82 H82       -75.0306   32.0006  -72.0551 H         1 UNK         0.1032 
     83 H83       -76.3204   30.1610  -73.0926 H         1 UNK         0.0461 
     84 H84       -77.8325   31.9313  -72.7041 H         1 UNK         0.3453 
     85 H85       -78.2033   33.0736  -73.9680 H         1 UNK         0.3453 
     86 H86       -74.1489   29.9840  -74.9473 H         1 UNK         0.2984 
     87 H87       -75.6135   27.2720  -76.6752 H         1 UNK         0.0554 
     88 H88       -75.9827   29.0934  -78.2963 H         1 UNK         0.0847 
     89 H89       -74.4834   28.2510  -78.6560 H         1 UNK         0.0847 
     90 H90       -74.4472   29.8331  -77.8761 H         1 UNK         0.0847 
     91 H91       -73.7103   26.7755  -75.7990 H         1 UNK         0.3141 
     92 H92       -70.4955   28.1918  -75.8166 H         1 UNK         0.0743 
     93 H93       -71.1314   28.8500  -73.5384 H         1 UNK         0.0784 
     94 H94       -72.1119   27.4017  -73.3341 H         1 UNK         0.0784 
     95 H95       -70.3577   27.2773  -73.4766 H         1 UNK         0.0784 
     96 H96       -72.2035   25.7480  -75.4767 H         1 UNK         0.3213 
     97 H97       -70.1482   23.9493  -77.6912 H         1 UNK         0.0855 
     98 H98       -70.3716   23.4264  -74.6747 H         1 UNK         0.0814 
     99 H99       -68.8714   23.5244  -75.5852 H         1 UNK         0.0814 
    100 H100      -70.0012   22.2212  -75.9096 H         1 UNK         0.0814 
    101 H101      -72.4103   23.2090  -76.0752 H         1 UNK         0.3105 
    102 H102      -74.9270   24.6956  -77.9515 H         1 UNK         0.0547 
    103 H103      -74.4123   22.8762  -79.5962 H         1 UNK         0.0837 
    104 H104      -75.7867   22.4732  -78.5839 H         1 UNK         0.0837 
    105 H105      -74.2149   21.7342  -78.2733 H         1 UNK         0.0837 
    106 H106      -75.4572   22.7007  -76.2130 H         1 UNK         0.3020 
    107 H107      -75.2861   22.8668  -73.6408 H         1 UNK         0.1245 
    108 H108      -75.7448   25.8465  -73.0554 H         1 UNK         0.0781 
    109 H109      -74.3965   24.8932  -72.4758 H         1 UNK         0.0781 
    110 H110      -74.5877   25.0925  -69.9844 H         1 UNK         0.0836 
    111 H111      -76.0558   24.9655  -69.0517 H         1 UNK         0.0836 
    112 H112      -77.5614   24.6158  -74.2581 H         1 UNK         0.3022 
    113 H113      -79.1375   22.3092  -76.4426 H         1 UNK         0.0747 
    114 H114      -80.0170   21.5966  -74.2673 H         1 UNK         0.0793 
    115 H115      -79.9000   23.2242  -73.6247 H         1 UNK         0.0793 
    116 H116      -81.0595   22.8608  -74.9039 H         1 UNK         0.0793 
    117 H117      -79.5600   25.0233  -75.4067 H         1 UNK         0.3047 
    118 H118      -77.9706   26.8135  -76.9659 H         1 UNK         0.0822 
    119 H119      -78.7397   27.7587  -79.1510 H         1 UNK         0.0807 
    120 H120      -79.4170   26.1906  -79.5920 H         1 UNK         0.0807 
    121 H121      -77.6825   26.3763  -79.3751 H         1 UNK         0.0807 
    122 H122      -79.8727   27.6406  -76.2440 H         1 UNK         0.2946 
    123 H123      -82.5951   28.2151  -76.8447 H         1 UNK         0.1144 
    124 H124      -83.5382   25.4794  -75.8325 H         1 UNK         0.0793 
    125 H125      -84.0969   26.2988  -77.2849 H         1 UNK         0.0793 
    126 H126      -84.4558   26.9815  -75.7104 H         1 UNK         0.0793 
    127 H127      -82.2127   26.8833  -74.2604 H         1 UNK         0.2896 
@<TRIPOS>BOND
     1    1    2 1    
     2    1   67 1    
     3    1   68 1    
     4    1   69 1    
     5    2    3 2    
     6    2    4 am   BACKBONE|DICT|INTERRES
     7    4    5 1    
     8    4   70 1    
     9    5    6 1    
    10    5   65 1    
    11    5   71 1    
    12    6    7 1    
    13    6   72 1    
    14    6   73 1    
    15    7    8 1    
    16    8    9 1    
    17    8   74 1    
    18    8   75 1    
    19    9   10 ar   
    20    9   14 ar   
    21   10   11 ar   
    22   10   76 1    
    23   11   12 ar   
    24   11   48 1    
    25   12   13 ar   
    26   12   77 1    
    27   13   14 ar   
    28   13   15 1    
    29   14   78 1    
    30   15   16 1    
    31   15   79 1    
    32   15   80 1    
    33   16   17 1    
    34   17   18 1    
    35   17   81 1    
    36   17   82 1    
    37   18   19 1    
    38   18   22 1    
    39   18   83 1    
    40   19   20 am   BACKBONE|DICT|INTERRES
    41   19   21 2    
    42   20   84 1    
    43   20   85 1    
    44   22   23 am   BACKBONE|DICT|INTERRES
    45   22   86 1    
    46   23   24 2    
    47   23   25 1    
    48   25   26 1    
    49   25   27 1    
    50   25   87 1    
    51   26   88 1    
    52   26   89 1    
    53   26   90 1    
    54   27   28 am   BACKBONE|DICT|INTERRES
    55   27   91 1    
    56   28   29 2    
    57   28   30 1    
    58   30   31 1    
    59   30   32 1    
    60   30   92 1    
    61   31   93 1    
    62   31   94 1    
    63   31   95 1    
    64   32   33 am   BACKBONE|DICT|INTERRES
    65   32   96 1    
    66   33   34 2    
    67   33   35 1    
    68   35   36 1    
    69   35   37 1    
    70   35   97 1    
    71   36   98 1    
    72   36   99 1    
    73   36  100 1    
    74   37   38 am   BACKBONE|DICT|INTERRES
    75   37  101 1    
    76   38   39 2    
    77   38   40 1    
    78   40   41 1    
    79   40   42 1    
    80   40  102 1    
    81   41  103 1    
    82   41  104 1    
    83   41  105 1    
    84   42   43 am   BACKBONE|DICT|INTERRES
    85   42  106 1    
    86   43   44 2    
    87   43   45 1    
    88   45   46 1    
    89   45   49 1    
    90   45  107 1    
    91   46   47 1    
    92   46  108 1    
    93   46  109 1    
    94   47   48 1    
    95   48  110 1    
    96   48  111 1    
    97   49   50 am   BACKBONE|DICT|INTERRES
    98   49  112 1    
    99   50   51 2    
   100   50   52 1    
   101   52   53 1    
   102   52   54 1    
   103   52  113 1    
   104   53  114 1    
   105   53  115 1    
   106   53  116 1    
   107   54   55 am   BACKBONE|DICT|INTERRES
   108   54  117 1    
   109   55   56 2    
   110   55   57 1    
   111   57   58 1    
   112   57   59 1    
   113   57  118 1    
   114   58  119 1    
   115   58  120 1    
   116   58  121 1    
   117   59   60 am   BACKBONE|DICT|INTERRES
   118   59  122 1    
   119   60   61 2    
   120   60   62 1    
   121   62   63 1    
   122   62   64 1    
   123   62  123 1    
   124   63  124 1    
   125   63  125 1    
   126   63  126 1    
   127   64   65 am   BACKBONE|DICT|INTERRES
   128   64  127 1    
   129   65   66 2    
@<TRIPOS>SUBSTRUCTURE
     1 UNK         1 GROUP             0       ****    0 ROOT    
