@<TRIPOS>MOLECULE
3R135
127   129    1
SMALL
USER_CHARGES


@<TRIPOS>ATOM
      1 CA        -83.5576   26.2350  -70.2870 C.3       0 UNK        -0.1998 
      2 C         -82.7566   26.6199  -71.5212 C.2       0 UNK         0.4909 
      3 O         -81.8355   25.8961  -71.8960 O.2       0 UNK        -0.5240 
      4 N         -83.1049   27.7544  -72.1472 N.am      1 UNK        -0.4739 
      5 CA        -82.4698   28.3245  -73.3485 C.3       1 UNK         0.0864 
      6 C6        -81.0071   28.7955  -73.1136 C.3       11 UNK        -0.0881 
      7 S7        -80.8789   30.1116  -71.8500 S.3       11 UNK        -0.2682 
      8 C8        -80.2097   29.2333  -70.3988 C.3       11 UNK         0.0289 
      9 C9        -78.7890   28.7383  -70.6280 C.ar      11 UNK        -0.0687 
     10 C10       -78.5581   27.3951  -70.9360 C.ar      11 UNK        -0.0823 
     11 C11       -77.2637   26.9364  -71.1926 C.ar      11 UNK        -0.0830 
     12 C12       -76.1887   27.8239  -71.1022 C.ar      11 UNK        -0.1021 
     13 C13       -76.4039   29.1649  -70.7714 C.ar      11 UNK        -0.0753 
     14 C14       -77.7061   29.6190  -70.5371 C.ar      11 UNK        -0.0933 
     15 C15       -75.2238   30.1171  -70.6807 C.3       11 UNK         0.0166 
     16 S16       -74.8803   30.8729  -72.2972 S.3       11 UNK        -0.2615 
     17 C17       -73.1572   31.4210  -72.0516 C.3       11 UNK        -0.0865 
     18 CA        -72.4530   31.8128  -73.3772 C.3       10 UNK         0.0862 
     19 C         -71.0042   32.3151  -73.0994 C.2       10 UNK         0.5551 
     20 N         -69.9576   31.6344  -73.5541 N.am      10 UNK        -0.7319 
     21 O         -70.8297   33.3477  -72.4569 O.2       10 UNK        -0.5018 
     22 N         -72.5442   30.7415  -74.3819 N.am      10 UNK        -0.4509 
     23 C         -72.3282   30.8982  -75.6935 C.2       10 UNK         0.4899 
     24 O         -72.1221   31.9918  -76.2227 O.2       10 UNK        -0.4839 
     25 CA        -72.3399   29.6180  -76.5561 C.3       9 UNK         0.0222 
     26 CB        -71.4873   29.7715  -77.8332 C.3       9 UNK        -0.1966 
     27 N         -71.9600   28.3964  -75.8292 N.am      9 UNK        -0.4218 
     28 C         -70.8145   28.1618  -75.1661 C.2       9 UNK         0.5020 
     29 O         -69.9115   28.9889  -75.0321 O.2       9 UNK        -0.5274 
     30 CA        -70.6611   26.7735  -74.5278 C.3       8 UNK         0.0270 
     31 CB        -71.4382   26.7024  -73.2014 C.3       8 UNK        -0.1976 
     32 N         -71.1370   25.7275  -75.4348 N.am      8 UNK        -0.4313 
     33 C         -70.3605   25.0360  -76.2817 C.2       8 UNK         0.5041 
     34 O         -69.1325   25.1256  -76.3164 O.2       8 UNK        -0.5577 
     35 CA        -71.0700   24.0876  -77.2695 C.3       7 UNK         0.0284 
     36 CB        -71.2043   22.6806  -76.6650 C.3       7 UNK        -0.1958 
     37 N         -72.3938   24.5703  -77.6704 N.am      7 UNK        -0.4454 
     38 C         -72.6125   25.6712  -78.4042 C.2       7 UNK         0.5089 
     39 O         -71.7166   26.3024  -78.9632 O.2       7 UNK        -0.5125 
     40 CA        -74.0656   26.1781  -78.5125 C.3       6 UNK         0.0408 
     41 CB        -74.6294   25.8923  -79.9133 C.3       6 UNK        -0.1791 
     42 N         -74.9864   25.6315  -77.5069 N.am      6 UNK        -0.4762 
     43 C         -74.8800   25.7560  -76.1746 C.2       6 UNK         0.5007 
     44 O         -73.9663   26.3800  -75.6321 O.2       6 UNK        -0.5032 
     45 CA        -75.9241   25.0303  -75.2996 C.3       5 UNK         0.0783 
     46 C46       -76.6531   26.0113  -74.3515 C.3       11 UNK        -0.0857 
     47 S47       -77.7677   25.1209  -73.2110 S.3       11 UNK        -0.2512 
     48 C48       -77.0374   25.4850  -71.5848 C.3       11 UNK         0.0225 
     49 N         -76.8764   24.2447  -76.0937 N.am      5 UNK        -0.4615 
     50 C         -76.6702   23.0149  -76.5725 C.2       4 UNK         0.5053 
     51 O         -75.6007   22.4158  -76.4503 O.2       4 UNK        -0.5105 
     52 CA        -77.8575   22.3606  -77.3128 C.3       4 UNK         0.0263 
     53 CB        -77.5595   20.9100  -77.7367 C.3       4 UNK        -0.1981 
     54 N         -79.1053   22.3815  -76.5366 N.am      4 UNK        -0.4224 
     55 C         -79.8896   23.4502  -76.3393 C.2       3 UNK         0.4895 
     56 O         -79.6295   24.5760  -76.7745 O.2       3 UNK        -0.5091 
     57 CA        -81.1614   23.2251  -75.5110 C.3       3 UNK         0.0250 
     58 CB        -80.8415   23.0040  -74.0208 C.3       3 UNK        -0.1996 
     59 N         -82.0367   24.3848  -75.6559 N.am      3 UNK        -0.4254 
     60 C         -83.3659   24.3873  -75.5261 C.2       2 UNK         0.5004 
     61 O         -84.0251   23.3873  -75.2329 O.2       2 UNK        -0.5226 
     62 CA        -84.0691   25.7412  -75.7436 C.3       2 UNK         0.0269 
     63 CB        -85.6011   25.6046  -75.8331 C.3       2 UNK        -0.1926 
     64 N         -83.7436   26.6866  -74.6733 N.am      2 UNK        -0.4687 
     65 C         -82.6153   27.4063  -74.5873 C.2       1 UNK         0.5165 
     66 O         -81.7298   27.3670  -75.4442 O.2       1 UNK        -0.5079 
     67 H67       -84.0302   25.2644  -70.4350 H         1 UNK         0.0900 
     68 H68       -84.3377   26.9621  -70.0622 H         1 UNK         0.0900 
     69 H69       -82.8996   26.1653  -69.4213 H         1 UNK         0.0900 
     70 H70       -83.8706   28.2994  -71.7749 H         1 UNK         0.2959 
     71 H71       -83.0526   29.2126  -73.5983 H         1 UNK         0.1079 
     72 H72       -80.3675   27.9504  -72.8631 H         1 UNK         0.0837 
     73 H73       -80.5908   29.2130  -74.0322 H         1 UNK         0.0837 
     74 H74       -80.8696   28.4062  -70.1363 H         1 UNK         0.0685 
     75 H75       -80.2212   29.9111  -69.5442 H         1 UNK         0.0685 
     76 H76       -79.3906   26.7081  -71.0120 H         1 UNK         0.1434 
     77 H77       -75.1838   27.4765  -71.3009 H         1 UNK         0.1329 
     78 H78       -77.8790   30.6597  -70.2986 H         1 UNK         0.1335 
     79 H79       -74.3454   29.5749  -70.3271 H         1 UNK         0.0680 
     80 H80       -75.4190   30.9014  -69.9476 H         1 UNK         0.0680 
     81 H81       -73.1664   32.2653  -71.3592 H         1 UNK         0.1032 
     82 H82       -72.5986   30.6247  -71.5558 H         1 UNK         0.1032 
     83 H83       -72.9911   32.6718  -73.7829 H         1 UNK         0.0461 
     84 H84       -69.0293   31.9774  -73.3659 H         1 UNK         0.3453 
     85 H85       -70.0788   30.7804  -74.0880 H         1 UNK         0.3453 
     86 H86       -72.7251   29.8143  -74.0292 H         1 UNK         0.2984 
     87 H87       -73.3758   29.4732  -76.8655 H         1 UNK         0.0554 
     88 H88       -71.5303   28.8761  -78.4512 H         1 UNK         0.0847 
     89 H89       -70.4403   29.9653  -77.5978 H         1 UNK         0.0847 
     90 H90       -71.8417   30.5998  -78.4478 H         1 UNK         0.0847 
     91 H91       -72.6710   27.6677  -75.8110 H         1 UNK         0.3141 
     92 H92       -69.6026   26.6203  -74.3062 H         1 UNK         0.0743 
     93 H93       -71.0941   27.4702  -72.5071 H         1 UNK         0.0784 
     94 H94       -72.5098   26.8479  -73.3437 H         1 UNK         0.0784 
     95 H95       -71.2954   25.7383  -72.7131 H         1 UNK         0.0784 
     96 H96       -72.1433   25.6230  -75.5052 H         1 UNK         0.3213 
     97 H97       -70.4490   24.0189  -78.1655 H         1 UNK         0.0855 
     98 H98       -71.8330   22.6802  -75.7735 H         1 UNK         0.0814 
     99 H99       -70.2288   22.2864  -76.3761 H         1 UNK         0.0814 
    100 H100      -71.6358   21.9804  -77.3805 H         1 UNK         0.0814 
    101 H101      -73.1949   24.0899  -77.2857 H         1 UNK         0.3105 
    102 H102      -74.0353   27.2604  -78.3711 H         1 UNK         0.0547 
    103 H103      -74.7085   24.8217  -80.1061 H         1 UNK         0.0837 
    104 H104      -75.6183   26.3325  -80.0422 H         1 UNK         0.0837 
    105 H105      -73.9873   26.3155  -80.6872 H         1 UNK         0.0837 
    106 H106      -75.7689   25.0982  -77.8575 H         1 UNK         0.3020 
    107 H107      -75.3528   24.3381  -74.6763 H         1 UNK         0.1245 
    108 H108      -77.2465   26.7303  -74.9194 H         1 UNK         0.0781 
    109 H109      -75.9359   26.5975  -73.7741 H         1 UNK         0.0781 
    110 H110      -77.4975   24.8369  -70.8376 H         1 UNK         0.0836 
    111 H111      -75.9751   25.2361  -71.5965 H         1 UNK         0.0836 
    112 H112      -77.7973   24.6528  -76.2331 H         1 UNK         0.3022 
    113 H113      -78.0151   22.9414  -78.2242 H         1 UNK         0.0747 
    114 H114      -76.6719   20.8604  -78.3691 H         1 UNK         0.0793 
    115 H115      -78.3842   20.4857  -78.3097 H         1 UNK         0.0793 
    116 H116      -77.3821   20.2660  -76.8744 H         1 UNK         0.0793 
    117 H117      -79.3750   21.5055  -76.1120 H         1 UNK         0.3047 
    118 H118      -81.6647   22.3422  -75.9111 H         1 UNK         0.0822 
    119 H119      -80.1225   22.1970  -73.8763 H         1 UNK         0.0807 
    120 H120      -81.7387   22.7411  -73.4602 H         1 UNK         0.0807 
    121 H121      -80.4248   23.9027  -73.5655 H         1 UNK         0.0807 
    122 H122      -81.5607   25.2499  -75.8967 H         1 UNK         0.2946 
    123 H123      -83.7157   26.1424  -76.6966 H         1 UNK         0.1144 
    124 H124      -86.0300   25.2249  -74.9049 H         1 UNK         0.0793 
    125 H125      -85.8853   24.9158  -76.6299 H         1 UNK         0.0793 
    126 H126      -86.0723   26.5629  -76.0528 H         1 UNK         0.0793 
    127 H127      -84.4005   26.7461  -73.9086 H         1 UNK         0.2896 
@<TRIPOS>BOND
     1    1    2 1    
     2    1   67 1    
     3    1   68 1    
     4    1   69 1    
     5    2    3 2    
     6    2    4 am   BACKBONE|DICT|INTERRES
     7    4    5 1    
     8    4   70 1    
     9    5    6 1    
    10    5   65 1    
    11    5   71 1    
    12    6    7 1    
    13    6   72 1    
    14    6   73 1    
    15    7    8 1    
    16    8    9 1    
    17    8   74 1    
    18    8   75 1    
    19    9   10 ar   
    20    9   14 ar   
    21   10   11 ar   
    22   10   76 1    
    23   11   12 ar   
    24   11   48 1    
    25   12   13 ar   
    26   12   77 1    
    27   13   14 ar   
    28   13   15 1    
    29   14   78 1    
    30   15   16 1    
    31   15   79 1    
    32   15   80 1    
    33   16   17 1    
    34   17   18 1    
    35   17   81 1    
    36   17   82 1    
    37   18   19 1    
    38   18   22 1    
    39   18   83 1    
    40   19   20 am   BACKBONE|DICT|INTERRES
    41   19   21 2    
    42   20   84 1    
    43   20   85 1    
    44   22   23 am   BACKBONE|DICT|INTERRES
    45   22   86 1    
    46   23   24 2    
    47   23   25 1    
    48   25   26 1    
    49   25   27 1    
    50   25   87 1    
    51   26   88 1    
    52   26   89 1    
    53   26   90 1    
    54   27   28 am   BACKBONE|DICT|INTERRES
    55   27   91 1    
    56   28   29 2    
    57   28   30 1    
    58   30   31 1    
    59   30   32 1    
    60   30   92 1    
    61   31   93 1    
    62   31   94 1    
    63   31   95 1    
    64   32   33 am   BACKBONE|DICT|INTERRES
    65   32   96 1    
    66   33   34 2    
    67   33   35 1    
    68   35   36 1    
    69   35   37 1    
    70   35   97 1    
    71   36   98 1    
    72   36   99 1    
    73   36  100 1    
    74   37   38 am   BACKBONE|DICT|INTERRES
    75   37  101 1    
    76   38   39 2    
    77   38   40 1    
    78   40   41 1    
    79   40   42 1    
    80   40  102 1    
    81   41  103 1    
    82   41  104 1    
    83   41  105 1    
    84   42   43 am   BACKBONE|DICT|INTERRES
    85   42  106 1    
    86   43   44 2    
    87   43   45 1    
    88   45   46 1    
    89   45   49 1    
    90   45  107 1    
    91   46   47 1    
    92   46  108 1    
    93   46  109 1    
    94   47   48 1    
    95   48  110 1    
    96   48  111 1    
    97   49   50 am   BACKBONE|DICT|INTERRES
    98   49  112 1    
    99   50   51 2    
   100   50   52 1    
   101   52   53 1    
   102   52   54 1    
   103   52  113 1    
   104   53  114 1    
   105   53  115 1    
   106   53  116 1    
   107   54   55 am   BACKBONE|DICT|INTERRES
   108   54  117 1    
   109   55   56 2    
   110   55   57 1    
   111   57   58 1    
   112   57   59 1    
   113   57  118 1    
   114   58  119 1    
   115   58  120 1    
   116   58  121 1    
   117   59   60 am   BACKBONE|DICT|INTERRES
   118   59  122 1    
   119   60   61 2    
   120   60   62 1    
   121   62   63 1    
   122   62   64 1    
   123   62  123 1    
   124   63  124 1    
   125   63  125 1    
   126   63  126 1    
   127   64   65 am   BACKBONE|DICT|INTERRES
   128   64  127 1    
   129   65   66 2    
@<TRIPOS>SUBSTRUCTURE
     1 UNK         1 GROUP             0       ****    0 ROOT    
