@<TRIPOS>MOLECULE
3R135
127   129    1
SMALL
USER_CHARGES


@<TRIPOS>ATOM
      1 CA        -84.0918   26.2223  -75.8610 C.3       0 UNK        -0.1998 
      2 C         -82.7834   26.9484  -75.5915 C.2       0 UNK         0.4909 
      3 O         -82.0605   27.2781  -76.5326 O.2       0 UNK        -0.5240 
      4 N         -82.4750   27.2040  -74.3124 N.am      1 UNK        -0.4739 
      5 CA        -81.2911   27.9514  -73.8744 C.3       1 UNK         0.0864 
      6 C6        -81.3431   28.2839  -72.3630 C.3       11 UNK        -0.0881 
      7 S7        -80.4566   29.8349  -71.9915 S.3       11 UNK        -0.2682 
      8 C8        -79.5484   29.4081  -70.4735 C.3       11 UNK         0.0289 
      9 C9        -78.3387   28.5219  -70.7379 C.ar      11 UNK        -0.0687 
     10 C10       -78.3309   27.1894  -70.3120 C.ar      11 UNK        -0.0823 
     11 C11       -77.1955   26.3912  -70.4883 C.ar      11 UNK        -0.0830 
     12 C12       -76.0596   26.9442  -71.0885 C.ar      11 UNK        -0.1021 
     13 C13       -76.0666   28.2616  -71.5517 C.ar      11 UNK        -0.0753 
     14 C14       -77.2076   29.0482  -71.3703 C.ar      11 UNK        -0.0933 
     15 C15       -74.8530   28.8182  -72.2771 C.3       11 UNK         0.0166 
     16 S16       -73.8837   29.9474  -71.2360 S.3       11 UNK        -0.2615 
     17 C17       -72.5951   30.4344  -72.4351 C.3       11 UNK        -0.0865 
     18 CA        -73.0096   31.6679  -73.2928 C.3       10 UNK         0.0862 
     19 C         -72.6956   33.0417  -72.6194 C.2       10 UNK         0.5551 
     20 N         -72.4533   34.1018  -73.3815 N.am      10 UNK        -0.7319 
     21 O         -72.6928   33.1629  -71.3969 O.2       10 UNK        -0.5018 
     22 N         -72.5628   31.5461  -74.6924 N.am      10 UNK        -0.4509 
     23 C         -71.2911   31.5326  -75.1160 C.2       10 UNK         0.4899 
     24 O         -70.3137   31.6029  -74.3691 O.2       10 UNK        -0.4839 
     25 CA        -71.1012   31.4213  -76.6417 C.3       9 UNK         0.0222 
     26 CB        -69.6186   31.4318  -77.0747 C.3       9 UNK        -0.1966 
     27 N         -71.8151   30.2677  -77.2072 N.am      9 UNK        -0.4218 
     28 C         -71.5997   28.9708  -76.9389 C.2       9 UNK         0.5020 
     29 O         -70.6980   28.5483  -76.2101 O.2       9 UNK        -0.5274 
     30 CA        -72.5375   27.9762  -77.6504 C.3       8 UNK         0.0270 
     31 CB        -72.0267   27.6736  -79.0692 C.3       8 UNK        -0.1976 
     32 N         -72.6764   26.7154  -76.9165 N.am      8 UNK        -0.4313 
     33 C         -73.2453   26.5985  -75.7108 C.2       8 UNK         0.5041 
     34 O         -73.7965   27.5276  -75.1209 O.2       8 UNK        -0.5577 
     35 CA        -73.2289   25.1984  -75.0910 C.3       7 UNK         0.0284 
     36 CB        -73.4540   25.2195  -73.5678 C.3       7 UNK        -0.1958 
     37 N         -74.2875   24.4119  -75.7114 N.am      7 UNK        -0.4454 
     38 C         -74.1781   23.1431  -76.1190 C.2       7 UNK         0.5089 
     39 O         -73.1276   22.4988  -76.0973 O.2       7 UNK        -0.5125 
     40 CA        -75.4878   22.4902  -76.5992 C.3       6 UNK         0.0408 
     41 CB        -75.3515   20.9847  -76.9085 C.3       6 UNK        -0.1791 
     42 N         -76.5815   22.7497  -75.6562 N.am      6 UNK        -0.4762 
     43 C         -76.6751   22.3601  -74.3734 C.2       6 UNK         0.5007 
     44 O         -75.8867   21.5855  -73.8303 O.2       6 UNK        -0.5032 
     45 CA        -77.8561   22.9370  -73.5573 C.3       5 UNK         0.0783 
     46 C46       -77.4268   24.1781  -72.7386 C.3       11 UNK        -0.0857 
     47 S47       -76.4813   23.7746  -71.2326 S.3       11 UNK        -0.2512 
     48 C48       -77.2058   24.9365  -70.0216 C.3       11 UNK         0.0225 
     49 N         -79.0046   23.2719  -74.4021 N.am      5 UNK        -0.4615 
     50 C         -79.7656   22.3917  -75.0632 C.2       4 UNK         0.5053 
     51 O         -79.6459   21.1701  -74.9708 O.2       4 UNK        -0.5105 
     52 CA        -80.8220   22.9844  -76.0068 C.3       4 UNK         0.0263 
     53 CB        -82.1152   23.2958  -75.2392 C.3       4 UNK        -0.1981 
     54 N         -80.3349   24.1899  -76.6882 N.am      4 UNK        -0.4224 
     55 C         -79.4424   24.1739  -77.6898 C.2       3 UNK         0.4895 
     56 O         -78.9865   23.1430  -78.1838 O.2       3 UNK        -0.5091 
     57 CA        -78.9553   25.5320  -78.2191 C.3       3 UNK         0.0250 
     58 CB        -79.9402   26.0968  -79.2549 C.3       3 UNK        -0.1996 
     59 N         -78.7430   26.5132  -77.1537 N.am      3 UNK        -0.4254 
     60 C         -77.7244   26.4781  -76.2813 C.2       2 UNK         0.5004 
     61 O         -76.8437   25.6181  -76.2883 O.2       2 UNK        -0.5226 
     62 CA        -77.6886   27.5772  -75.2047 C.3       2 UNK         0.0269 
     63 CB        -76.9254   28.8022  -75.7333 C.3       2 UNK        -0.1926 
     64 N         -79.0081   28.0184  -74.7444 N.am      2 UNK        -0.4687 
     65 C         -79.9807   27.2359  -74.2588 C.2       1 UNK         0.5165 
     66 O         -79.8884   26.0117  -74.1349 O.2       1 UNK        -0.5079 
     67 H67       -84.8806   26.9427  -76.0752 H         1 UNK         0.0900 
     68 H68       -83.9917   25.5661  -76.7250 H         1 UNK         0.0900 
     69 H69       -84.3999   25.6177  -75.0083 H         1 UNK         0.0900 
     70 H70       -83.0890   26.8795  -73.5792 H         1 UNK         0.2959 
     71 H71       -81.3314   28.8913  -74.4306 H         1 UNK         0.1079 
     72 H72       -80.9623   27.4588  -71.7577 H         1 UNK         0.0837 
     73 H73       -82.3753   28.4346  -72.0428 H         1 UNK         0.0837 
     74 H74       -80.2313   28.9397  -69.7629 H         1 UNK         0.0685 
     75 H75       -79.2097   30.3316  -70.0017 H         1 UNK         0.0685 
     76 H76       -79.2066   26.7774  -69.8294 H         1 UNK         0.1434 
     77 H77       -75.1738   26.3379  -71.2151 H         1 UNK         0.1329 
     78 H78       -77.2122   30.0736  -71.7139 H         1 UNK         0.1335 
     79 H79       -74.2054   28.0039  -72.6016 H         1 UNK         0.0680 
     80 H80       -75.1719   29.3372  -73.1812 H         1 UNK         0.0680 
     81 H81       -71.6597   30.6219  -71.9046 H         1 UNK         0.1032 
     82 H82       -72.3911   29.5739  -73.0756 H         1 UNK         0.1032 
     83 H83       -74.0968   31.6589  -73.3767 H         1 UNK         0.0461 
     84 H84       -72.2581   34.9893  -72.9454 H         1 UNK         0.3453 
     85 H85       -72.4614   34.0228  -74.3855 H         1 UNK         0.3453 
     86 H86       -73.2992   31.4887  -75.3807 H         1 UNK         0.2984 
     87 H87       -71.5671   32.3092  -77.0719 H         1 UNK         0.0554 
     88 H88       -69.1250   32.3477  -76.7475 H         1 UNK         0.0847 
     89 H89       -69.5209   31.3816  -78.1590 H         1 UNK         0.0847 
     90 H90       -69.0614   30.5968  -76.6491 H         1 UNK         0.0847 
     91 H91       -72.5739   30.4963  -77.8352 H         1 UNK         0.3141 
     92 H92       -73.5296   28.4275  -77.7231 H         1 UNK         0.0743 
     93 H93       -71.9452   28.5861  -79.6614 H         1 UNK         0.0784 
     94 H94       -72.7038   27.0050  -79.6016 H         1 UNK         0.0784 
     95 H95       -71.0397   27.2092  -79.0515 H         1 UNK         0.0784 
     96 H96       -72.2420   25.9017  -77.3266 H         1 UNK         0.3213 
     97 H97       -72.2491   24.7579  -75.2884 H         1 UNK         0.0855 
     98 H98       -74.4402   25.6108  -73.3190 H         1 UNK         0.0814 
     99 H99       -72.7134   25.8464  -73.0697 H         1 UNK         0.0814 
    100 H100      -73.3781   24.2189  -73.1420 H         1 UNK         0.0814 
    101 H101      -75.1841   24.8827  -75.8323 H         1 UNK         0.3105 
    102 H102      -75.7621   22.9936  -77.5275 H         1 UNK         0.0547 
    103 H103      -76.2994   20.5624  -77.2420 H         1 UNK         0.0837 
    104 H104      -75.0172   20.4166  -76.0402 H         1 UNK         0.0837 
    105 H105      -74.6237   20.8169  -77.7030 H         1 UNK         0.0837 
    106 H106      -77.2626   23.4255  -75.9786 H         1 UNK         0.3020 
    107 H107      -78.1834   22.1567  -72.8664 H         1 UNK         0.1245 
    108 H108      -78.3168   24.7252  -72.4242 H         1 UNK         0.0781 
    109 H109      -76.8523   24.8785  -73.3475 H         1 UNK         0.0781 
    110 H110      -76.6496   24.8630  -69.0863 H         1 UNK         0.0836 
    111 H111      -78.2239   24.6113  -69.8019 H         1 UNK         0.0836 
    112 H112      -79.2353   24.2600  -74.4734 H         1 UNK         0.3022 
    113 H113      -81.0515   22.2287  -76.7614 H         1 UNK         0.0747 
    114 H114      -82.9150   23.5801  -75.9211 H         1 UNK         0.0793 
    115 H115      -82.4628   22.4201  -74.6891 H         1 UNK         0.0793 
    116 H116      -81.9757   24.1000  -74.5159 H         1 UNK         0.0793 
    117 H117      -80.6332   25.0832  -76.3194 H         1 UNK         0.3047 
    118 H118      -77.9985   25.3659  -78.7196 H         1 UNK         0.0822 
    119 H119      -79.5691   27.0248  -79.6902 H         1 UNK         0.0807 
    120 H120      -80.9186   26.2993  -78.8176 H         1 UNK         0.0807 
    121 H121      -80.0897   25.3926  -80.0746 H         1 UNK         0.0807 
    122 H122      -79.4391   27.2398  -77.0546 H         1 UNK         0.2946 
    123 H123      -77.1512   27.1754  -74.3427 H         1 UNK         0.1144 
    124 H124      -76.7700   29.5429  -74.9494 H         1 UNK         0.0793 
    125 H125      -77.4580   29.2874  -76.5520 H         1 UNK         0.0793 
    126 H126      -75.9434   28.5213  -76.1132 H         1 UNK         0.0793 
    127 H127      -79.1782   29.0129  -74.7885 H         1 UNK         0.2896 
@<TRIPOS>BOND
     1    1    2 1    
     2    1   67 1    
     3    1   68 1    
     4    1   69 1    
     5    2    3 2    
     6    2    4 am   BACKBONE|DICT|INTERRES
     7    4    5 1    
     8    4   70 1    
     9    5    6 1    
    10    5   65 1    
    11    5   71 1    
    12    6    7 1    
    13    6   72 1    
    14    6   73 1    
    15    7    8 1    
    16    8    9 1    
    17    8   74 1    
    18    8   75 1    
    19    9   10 ar   
    20    9   14 ar   
    21   10   11 ar   
    22   10   76 1    
    23   11   12 ar   
    24   11   48 1    
    25   12   13 ar   
    26   12   77 1    
    27   13   14 ar   
    28   13   15 1    
    29   14   78 1    
    30   15   16 1    
    31   15   79 1    
    32   15   80 1    
    33   16   17 1    
    34   17   18 1    
    35   17   81 1    
    36   17   82 1    
    37   18   19 1    
    38   18   22 1    
    39   18   83 1    
    40   19   20 am   BACKBONE|DICT|INTERRES
    41   19   21 2    
    42   20   84 1    
    43   20   85 1    
    44   22   23 am   BACKBONE|DICT|INTERRES
    45   22   86 1    
    46   23   24 2    
    47   23   25 1    
    48   25   26 1    
    49   25   27 1    
    50   25   87 1    
    51   26   88 1    
    52   26   89 1    
    53   26   90 1    
    54   27   28 am   BACKBONE|DICT|INTERRES
    55   27   91 1    
    56   28   29 2    
    57   28   30 1    
    58   30   31 1    
    59   30   32 1    
    60   30   92 1    
    61   31   93 1    
    62   31   94 1    
    63   31   95 1    
    64   32   33 am   BACKBONE|DICT|INTERRES
    65   32   96 1    
    66   33   34 2    
    67   33   35 1    
    68   35   36 1    
    69   35   37 1    
    70   35   97 1    
    71   36   98 1    
    72   36   99 1    
    73   36  100 1    
    74   37   38 am   BACKBONE|DICT|INTERRES
    75   37  101 1    
    76   38   39 2    
    77   38   40 1    
    78   40   41 1    
    79   40   42 1    
    80   40  102 1    
    81   41  103 1    
    82   41  104 1    
    83   41  105 1    
    84   42   43 am   BACKBONE|DICT|INTERRES
    85   42  106 1    
    86   43   44 2    
    87   43   45 1    
    88   45   46 1    
    89   45   49 1    
    90   45  107 1    
    91   46   47 1    
    92   46  108 1    
    93   46  109 1    
    94   47   48 1    
    95   48  110 1    
    96   48  111 1    
    97   49   50 am   BACKBONE|DICT|INTERRES
    98   49  112 1    
    99   50   51 2    
   100   50   52 1    
   101   52   53 1    
   102   52   54 1    
   103   52  113 1    
   104   53  114 1    
   105   53  115 1    
   106   53  116 1    
   107   54   55 am   BACKBONE|DICT|INTERRES
   108   54  117 1    
   109   55   56 2    
   110   55   57 1    
   111   57   58 1    
   112   57   59 1    
   113   57  118 1    
   114   58  119 1    
   115   58  120 1    
   116   58  121 1    
   117   59   60 am   BACKBONE|DICT|INTERRES
   118   59  122 1    
   119   60   61 2    
   120   60   62 1    
   121   62   63 1    
   122   62   64 1    
   123   62  123 1    
   124   63  124 1    
   125   63  125 1    
   126   63  126 1    
   127   64   65 am   BACKBONE|DICT|INTERRES
   128   64  127 1    
   129   65   66 2    
@<TRIPOS>SUBSTRUCTURE
     1 UNK         1 GROUP             0       ****    0 ROOT    
