@<TRIPOS>MOLECULE
3R135
127   129    1
SMALL
USER_CHARGES


@<TRIPOS>ATOM
      1 CA        -85.6121   28.6833  -73.2165 C.3       0 UNK        -0.1998 
      2 C         -84.3477   28.8755  -74.0402 C.2       0 UNK         0.4909 
      3 O         -84.4332   29.1140  -75.2451 O.2       0 UNK        -0.5240 
      4 N         -83.1778   28.7810  -73.3957 N.am      1 UNK        -0.4739 
      5 CA        -81.8507   28.8743  -74.0160 C.3       1 UNK         0.0864 
      6 C6        -80.7226   29.0629  -72.9669 C.3       11 UNK        -0.0881 
      7 S7        -80.8465   27.9422  -71.5253 S.3       11 UNK        -0.2682 
      8 C8        -79.7381   28.7695  -70.3444 C.3       11 UNK         0.0289 
      9 C9        -78.2835   28.5825  -70.7414 C.ar      11 UNK        -0.0687 
     10 C10       -77.6426   27.3714  -70.4705 C.ar      11 UNK        -0.0823 
     11 C11       -76.3174   27.1599  -70.8663 C.ar      11 UNK        -0.0830 
     12 C12       -75.6276   28.1938  -71.5094 C.ar      11 UNK        -0.1021 
     13 C13       -76.2478   29.4234  -71.7562 C.ar      11 UNK        -0.0753 
     14 C14       -77.5806   29.6084  -71.3787 C.ar      11 UNK        -0.0933 
     15 C15       -75.4728   30.5637  -72.3995 C.3       11 UNK         0.0166 
     16 S16       -75.7415   30.6304  -74.1960 S.3       11 UNK        -0.2615 
     17 C17       -74.6582   32.0239  -74.6661 C.3       11 UNK        -0.0865 
     18 CA        -73.3778   31.5783  -75.4238 C.3       10 UNK         0.0862 
     19 C         -72.5884   32.8186  -75.9384 C.2       10 UNK         0.5551 
     20 N         -71.3783   33.0847  -75.4616 N.am      10 UNK        -0.7319 
     21 O         -73.0872   33.5527  -76.7880 O.2       10 UNK        -0.5018 
     22 N         -72.5880   30.6165  -74.6360 N.am      10 UNK        -0.4509 
     23 C         -71.6311   29.8150  -75.1205 C.2       10 UNK         0.4899 
     24 O         -71.2500   29.8258  -76.2917 O.2       10 UNK        -0.4839 
     25 CA        -70.9840   28.8270  -74.1394 C.3       9 UNK         0.0222 
     26 CB        -71.4114   29.0058  -72.6643 C.3       9 UNK        -0.1966 
     27 N         -71.2785   27.4667  -74.5851 N.am      9 UNK        -0.4218 
     28 C         -70.5149   26.3955  -74.3277 C.2       9 UNK         0.5020 
     29 O         -69.4526   26.4573  -73.7057 O.2       9 UNK        -0.5274 
     30 CA        -70.9995   25.0148  -74.8113 C.3       8 UNK         0.0270 
     31 CB        -71.3390   24.1121  -73.6121 C.3       8 UNK        -0.1976 
     32 N         -72.1609   25.0868  -75.7006 N.am      8 UNK        -0.4313 
     33 C         -72.0839   25.2885  -77.0244 C.2       8 UNK         0.5041 
     34 O         -71.0175   25.3904  -77.6329 O.2       8 UNK        -0.5577 
     35 CA        -73.4018   25.4029  -77.8175 C.3       7 UNK         0.0284 
     36 CB        -73.6936   24.0858  -78.5547 C.3       7 UNK        -0.1958 
     37 N         -74.5699   25.7780  -77.0129 N.am      7 UNK        -0.4454 
     38 C         -74.6885   26.9261  -76.3304 C.2       7 UNK         0.5089 
     39 O         -73.8330   27.8086  -76.3383 O.2       7 UNK        -0.5125 
     40 CA        -75.9242   27.0961  -75.4320 C.3       6 UNK         0.0408 
     41 CB        -77.0635   27.7913  -76.1904 C.3       6 UNK        -0.1791 
     42 N         -76.4163   25.8547  -74.8307 N.am      6 UNK        -0.4762 
     43 C         -75.6984   25.0449  -74.0369 C.2       6 UNK         0.5007 
     44 O         -74.4913   25.1772  -73.8344 O.2       6 UNK        -0.5032 
     45 CA        -76.4587   23.8825  -73.3794 C.3       5 UNK         0.0783 
     46 C46       -77.4082   24.3862  -72.2610 C.3       11 UNK        -0.0857 
     47 S47       -76.6429   24.3455  -70.6045 S.3       11 UNK        -0.2512 
     48 C48       -75.5938   25.8451  -70.5775 C.3       11 UNK         0.0225 
     49 N         -77.1737   23.1351  -74.4120 N.am      5 UNK        -0.4615 
     50 C         -76.6479   22.1144  -75.1019 C.2       4 UNK         0.5053 
     51 O         -75.5487   21.6163  -74.8588 O.2       4 UNK        -0.5105 
     52 CA        -77.4776   21.5546  -76.2720 C.3       4 UNK         0.0263 
     53 CB        -78.3084   20.3464  -75.8107 C.3       4 UNK        -0.1981 
     54 N         -78.3652   22.5418  -76.8925 N.am      4 UNK        -0.4224 
     55 C         -77.9569   23.6566  -77.5155 C.2       3 UNK         0.4895 
     56 O         -76.7773   23.9762  -77.6554 O.2       3 UNK        -0.5091 
     57 CA        -79.0550   24.6012  -78.0269 C.3       3 UNK         0.0250 
     58 CB        -79.5017   24.1881  -79.4383 C.3       3 UNK        -0.1996 
     59 N         -80.2281   24.7010  -77.1504 N.am      3 UNK        -0.4254 
     60 C         -80.2138   25.0540  -75.8563 C.2       2 UNK         0.5004 
     61 O         -79.1875   25.2333  -75.1947 O.2       2 UNK        -0.5226 
     62 CA        -81.5863   25.1979  -75.1771 C.3       2 UNK         0.0269 
     63 CB        -81.8184   24.0329  -74.2012 C.3       2 UNK        -0.1926 
     64 N         -81.7383   26.4642  -74.4546 N.am      2 UNK        -0.4687 
     65 C         -81.5747   27.6929  -74.9686 C.2       1 UNK         0.5165 
     66 O         -81.2705   27.9179  -76.1414 O.2       1 UNK        -0.5079 
     67 H67       -85.3899   28.4907  -72.1670 H         1 UNK         0.0900 
     68 H68       -86.1860   27.8409  -73.6015 H         1 UNK         0.0900 
     69 H69       -86.2358   29.5751  -73.2726 H         1 UNK         0.0900 
     70 H70       -83.1685   28.5808  -72.4049 H         1 UNK         0.2959 
     71 H71       -81.8558   29.7694  -74.6428 H         1 UNK         0.1079 
     72 H72       -79.7365   28.9513  -73.4235 H         1 UNK         0.0837 
     73 H73       -80.7589   30.0887  -72.5970 H         1 UNK         0.0837 
     74 H74       -79.9929   29.8281  -70.2725 H         1 UNK         0.0685 
     75 H75       -79.9017   28.3479  -69.3515 H         1 UNK         0.0685 
     76 H76       -78.1900   26.5882  -69.9647 H         1 UNK         0.1434 
     77 H77       -74.5996   28.0447  -71.8078 H         1 UNK         0.1329 
     78 H78       -78.0686   30.5522  -71.5804 H         1 UNK         0.1335 
     79 H79       -75.7777   31.5125  -71.9548 H         1 UNK         0.0680 
     80 H80       -74.4078   30.4559  -72.1920 H         1 UNK         0.0680 
     81 H81       -74.3961   32.6062  -73.7807 H         1 UNK         0.1032 
     82 H82       -75.2526   32.6916  -75.2930 H         1 UNK         0.1032 
     83 H83       -73.7042   31.0470  -76.3203 H         1 UNK         0.0461 
     84 H84       -70.9601   32.4841  -74.7698 H         1 UNK         0.3453 
     85 H85       -70.8765   33.8887  -75.8043 H         1 UNK         0.3453 
     86 H86       -72.8340   30.5377  -73.6624 H         1 UNK         0.2984 
     87 H87       -69.9075   28.9979  -74.2057 H         1 UNK         0.0554 
     88 H88       -71.2159   30.0192  -72.3111 H         1 UNK         0.0847 
     89 H89       -72.4699   28.7918  -72.5189 H         1 UNK         0.0847 
     90 H90       -70.8524   28.3352  -72.0114 H         1 UNK         0.0847 
     91 H91       -72.1060   27.3659  -75.1658 H         1 UNK         0.3141 
     92 H92       -70.1697   24.5514  -75.3493 H         1 UNK         0.0743 
     93 H93       -70.4566   23.9377  -72.9950 H         1 UNK         0.0784 
     94 H94       -72.0972   24.5600  -72.9693 H         1 UNK         0.0784 
     95 H95       -71.7048   23.1376  -73.9362 H         1 UNK         0.0784 
     96 H96       -73.0731   25.0445  -75.2535 H         1 UNK         0.3213 
     97 H97       -73.2559   26.1862  -78.5641 H         1 UNK         0.0855 
     98 H98       -72.8396   23.7740  -79.1576 H         1 UNK         0.0814 
     99 H99       -74.5425   24.1902  -79.2305 H         1 UNK         0.0814 
    100 H100      -73.9169   23.2764  -77.8583 H         1 UNK         0.0814 
    101 H101      -75.3407   25.1144  -76.9914 H         1 UNK         0.3105 
    102 H102      -75.6286   27.7401  -74.6025 H         1 UNK         0.0547 
    103 H103      -76.7385   28.7583  -76.5764 H         1 UNK         0.0837 
    104 H104      -77.4010   27.1991  -77.0391 H         1 UNK         0.0837 
    105 H105      -77.9212   27.9731  -75.5421 H         1 UNK         0.0837 
    106 H106      -77.4073   25.6554  -74.9572 H         1 UNK         0.3020 
    107 H107      -75.7141   23.2215  -72.9288 H         1 UNK         0.1245 
    108 H108      -78.2785   23.7309  -72.1966 H         1 UNK         0.0781 
    109 H109      -77.8217   25.3749  -72.4706 H         1 UNK         0.0781 
    110 H110      -74.7678   25.7048  -71.2749 H         1 UNK         0.0836 
    111 H111      -75.1382   25.9212  -69.5896 H         1 UNK         0.0836 
    112 H112      -78.0566   23.5295  -74.7143 H         1 UNK         0.3022 
    113 H113      -76.7744   21.2171  -77.0364 H         1 UNK         0.0747 
    114 H114      -78.8332   19.8822  -76.6459 H         1 UNK         0.0793 
    115 H115      -77.6702   19.5810  -75.3666 H         1 UNK         0.0793 
    116 H116      -79.0493   20.6278  -75.0610 H         1 UNK         0.0793 
    117 H117      -79.3577   22.3708  -76.8239 H         1 UNK         0.3047 
    118 H118      -78.6192   25.5982  -78.0944 H         1 UNK         0.0822 
    119 H119      -80.1944   24.9142  -79.8645 H         1 UNK         0.0807 
    120 H120      -79.9920   23.2138  -79.4400 H         1 UNK         0.0807 
    121 H121      -78.6479   24.1244  -80.1147 H         1 UNK         0.0807 
    122 H122      -81.1229   24.5630  -77.5981 H         1 UNK         0.2946 
    123 H123      -82.3645   25.1699  -75.9427 H         1 UNK         0.1144 
    124 H124      -82.8136   24.0768  -73.7584 H         1 UNK         0.0793 
    125 H125      -81.0891   24.0375  -73.3896 H         1 UNK         0.0793 
    126 H126      -81.7341   23.0716  -74.7099 H         1 UNK         0.0793 
    127 H127      -81.9567   26.3992  -73.4707 H         1 UNK         0.2896 
@<TRIPOS>BOND
     1    1    2 1    
     2    1   67 1    
     3    1   68 1    
     4    1   69 1    
     5    2    3 2    
     6    2    4 am   BACKBONE|DICT|INTERRES
     7    4    5 1    
     8    4   70 1    
     9    5    6 1    
    10    5   65 1    
    11    5   71 1    
    12    6    7 1    
    13    6   72 1    
    14    6   73 1    
    15    7    8 1    
    16    8    9 1    
    17    8   74 1    
    18    8   75 1    
    19    9   10 ar   
    20    9   14 ar   
    21   10   11 ar   
    22   10   76 1    
    23   11   12 ar   
    24   11   48 1    
    25   12   13 ar   
    26   12   77 1    
    27   13   14 ar   
    28   13   15 1    
    29   14   78 1    
    30   15   16 1    
    31   15   79 1    
    32   15   80 1    
    33   16   17 1    
    34   17   18 1    
    35   17   81 1    
    36   17   82 1    
    37   18   19 1    
    38   18   22 1    
    39   18   83 1    
    40   19   20 am   BACKBONE|DICT|INTERRES
    41   19   21 2    
    42   20   84 1    
    43   20   85 1    
    44   22   23 am   BACKBONE|DICT|INTERRES
    45   22   86 1    
    46   23   24 2    
    47   23   25 1    
    48   25   26 1    
    49   25   27 1    
    50   25   87 1    
    51   26   88 1    
    52   26   89 1    
    53   26   90 1    
    54   27   28 am   BACKBONE|DICT|INTERRES
    55   27   91 1    
    56   28   29 2    
    57   28   30 1    
    58   30   31 1    
    59   30   32 1    
    60   30   92 1    
    61   31   93 1    
    62   31   94 1    
    63   31   95 1    
    64   32   33 am   BACKBONE|DICT|INTERRES
    65   32   96 1    
    66   33   34 2    
    67   33   35 1    
    68   35   36 1    
    69   35   37 1    
    70   35   97 1    
    71   36   98 1    
    72   36   99 1    
    73   36  100 1    
    74   37   38 am   BACKBONE|DICT|INTERRES
    75   37  101 1    
    76   38   39 2    
    77   38   40 1    
    78   40   41 1    
    79   40   42 1    
    80   40  102 1    
    81   41  103 1    
    82   41  104 1    
    83   41  105 1    
    84   42   43 am   BACKBONE|DICT|INTERRES
    85   42  106 1    
    86   43   44 2    
    87   43   45 1    
    88   45   46 1    
    89   45   49 1    
    90   45  107 1    
    91   46   47 1    
    92   46  108 1    
    93   46  109 1    
    94   47   48 1    
    95   48  110 1    
    96   48  111 1    
    97   49   50 am   BACKBONE|DICT|INTERRES
    98   49  112 1    
    99   50   51 2    
   100   50   52 1    
   101   52   53 1    
   102   52   54 1    
   103   52  113 1    
   104   53  114 1    
   105   53  115 1    
   106   53  116 1    
   107   54   55 am   BACKBONE|DICT|INTERRES
   108   54  117 1    
   109   55   56 2    
   110   55   57 1    
   111   57   58 1    
   112   57   59 1    
   113   57  118 1    
   114   58  119 1    
   115   58  120 1    
   116   58  121 1    
   117   59   60 am   BACKBONE|DICT|INTERRES
   118   59  122 1    
   119   60   61 2    
   120   60   62 1    
   121   62   63 1    
   122   62   64 1    
   123   62  123 1    
   124   63  124 1    
   125   63  125 1    
   126   63  126 1    
   127   64   65 am   BACKBONE|DICT|INTERRES
   128   64  127 1    
   129   65   66 2    
@<TRIPOS>SUBSTRUCTURE
     1 UNK         1 GROUP             0       ****    0 ROOT    
