@<TRIPOS>MOLECULE
3R135
127   129    1
SMALL
USER_CHARGES


@<TRIPOS>ATOM
      1 CA        -81.5334   26.6194  -70.9565 C.3       0 UNK        -0.1998 
      2 C         -82.0126   27.1105  -72.3137 C.2       0 UNK         0.4909 
      3 O         -83.1994   27.3936  -72.4773 O.2       0 UNK        -0.5240 
      4 N         -81.0980   27.1931  -73.2875 N.am      1 UNK        -0.4739 
      5 CA        -81.3638   27.6047  -74.6739 C.3       1 UNK         0.0864 
      6 C6        -80.5830   28.8875  -75.0802 C.3       11 UNK        -0.0881 
      7 S7        -81.1329   30.3400  -74.1090 S.3       11 UNK        -0.2682 
      8 C8        -79.6112   31.3396  -73.8974 C.3       11 UNK         0.0289 
      9 C9        -78.4630   30.6875  -73.1221 C.ar      11 UNK        -0.0687 
     10 C10       -78.6240   29.5043  -72.3943 C.ar      11 UNK        -0.0823 
     11 C11       -77.5395   28.8945  -71.7651 C.ar      11 UNK        -0.0830 
     12 C12       -76.2928   29.5193  -71.7872 C.ar      11 UNK        -0.1021 
     13 C13       -76.1103   30.7132  -72.4907 C.ar      11 UNK        -0.0753 
     14 C14       -77.2006   31.2911  -73.1521 C.ar      11 UNK        -0.0933 
     15 C15       -74.7376   31.3722  -72.5496 C.3       11 UNK         0.0166 
     16 S16       -73.5142   30.3362  -73.4212 S.3       11 UNK        -0.2615 
     17 C17       -72.8447   29.3098  -72.0614 C.3       11 UNK        -0.0865 
     18 CA        -71.3363   28.9782  -72.2505 C.3       10 UNK         0.0862 
     19 C         -70.6859   28.3559  -70.9757 C.2       10 UNK         0.5551 
     20 N         -69.6993   27.4767  -71.1021 N.am      10 UNK        -0.7319 
     21 O         -71.0532   28.6985  -69.8542 O.2       10 UNK        -0.5018 
     22 N         -71.0832   28.2402  -73.5010 N.am      10 UNK        -0.4509 
     23 C         -71.5300   27.0139  -73.8015 C.2       10 UNK         0.4899 
     24 O         -72.1673   26.2955  -73.0297 O.2       10 UNK        -0.4839 
     25 CA        -71.2567   26.5501  -75.2392 C.3       9 UNK         0.0222 
     26 CB        -71.5301   25.0486  -75.4475 C.3       9 UNK        -0.1966 
     27 N         -72.1030   27.3223  -76.1469 N.am      9 UNK        -0.4218 
     28 C         -71.7694   28.4992  -76.6925 C.2       9 UNK         0.5020 
     29 O         -70.6729   29.0364  -76.5263 O.2       9 UNK        -0.5274 
     30 CA        -72.8239   29.2078  -77.5513 C.3       8 UNK         0.0270 
     31 CB        -72.8643   28.6156  -78.9717 C.3       8 UNK        -0.1976 
     32 N         -74.1602   29.1614  -76.9525 N.am      8 UNK        -0.4313 
     33 C         -75.0819   30.1270  -77.0855 C.2       8 UNK         0.5041 
     34 O         -74.8710   31.1922  -77.6702 O.2       8 UNK        -0.5577 
     35 CA        -76.4793   29.8541  -76.4850 C.3       7 UNK         0.0284 
     36 CB        -77.5847   30.7195  -77.1266 C.3       7 UNK        -0.1958 
     37 N         -76.8436   28.4337  -76.5158 N.am      7 UNK        -0.4454 
     38 C         -76.9469   27.6472  -77.5972 C.2       7 UNK         0.5089 
     39 O         -76.9456   28.0686  -78.7546 O.2       7 UNK        -0.5125 
     40 CA        -77.0113   26.1244  -77.3571 C.3       6 UNK         0.0408 
     41 CB        -76.0515   25.3807  -78.3108 C.3       6 UNK        -0.1791 
     42 N         -76.7718   25.6855  -75.9720 N.am      6 UNK        -0.4762 
     43 C         -75.6665   25.8607  -75.2295 C.2       6 UNK         0.5007 
     44 O         -74.7255   26.5676  -75.5948 O.2       6 UNK        -0.5032 
     45 CA        -75.5699   25.1180  -73.8829 C.3       5 UNK         0.0783 
     46 C46       -75.9392   26.0073  -72.6674 C.3       11 UNK        -0.0857 
     47 S47       -77.7317   26.2203  -72.3741 S.3       11 UNK        -0.2512 
     48 C48       -77.7171   27.5356  -71.1109 C.3       11 UNK         0.0225 
     49 N         -76.3031   23.8485  -73.9180 N.am      5 UNK        -0.4615 
     50 C         -75.8267   22.6745  -73.4862 C.2       4 UNK         0.5053 
     51 O         -74.7336   22.5381  -72.9362 O.2       4 UNK        -0.5105 
     52 CA        -76.7059   21.4282  -73.7189 C.3       4 UNK         0.0263 
     53 CB        -77.5617   21.1393  -72.4751 C.3       4 UNK        -0.1981 
     54 N         -77.5829   21.5409  -74.8884 N.am      4 UNK        -0.4224 
     55 C         -77.1669   21.6807  -76.1551 C.2       3 UNK         0.4895 
     56 O         -75.9882   21.5791  -76.4966 O.2       3 UNK        -0.5091 
     57 CA        -78.2222   22.0123  -77.2312 C.3       3 UNK         0.0250 
     58 CB        -78.4483   20.7946  -78.1432 C.3       3 UNK        -0.1996 
     59 N         -79.5303   22.5028  -76.7697 N.am      3 UNK        -0.4254 
     60 C         -79.7773   23.5220  -75.9340 C.2       2 UNK         0.5004 
     61 O         -78.9092   24.1118  -75.2855 O.2       2 UNK        -0.5226 
     62 CA        -81.2572   23.9041  -75.7676 C.3       2 UNK         0.0269 
     63 CB        -81.9977   22.8377  -74.9418 C.3       2 UNK        -0.1926 
     64 N         -81.4338   25.1988  -75.1090 N.am      2 UNK        -0.4687 
     65 C         -81.1159   26.4023  -75.6104 C.2       1 UNK         0.5165 
     66 O         -80.6631   26.5721  -76.7436 O.2       1 UNK        -0.5079 
     67 H67       -80.6065   26.0523  -71.0370 H         1 UNK         0.0900 
     68 H68       -82.2819   25.9697  -70.5035 H         1 UNK         0.0900 
     69 H69       -81.3665   27.4642  -70.2889 H         1 UNK         0.0900 
     70 H70       -80.1466   26.9007  -73.1033 H         1 UNK         0.2959 
     71 H71       -82.4257   27.8293  -74.7963 H         1 UNK         0.1079 
     72 H72       -79.5087   28.7358  -74.9662 H         1 UNK         0.0837 
     73 H73       -80.7466   29.1224  -76.1335 H         1 UNK         0.0837 
     74 H74       -79.2595   31.6425  -74.8833 H         1 UNK         0.0685 
     75 H75       -79.8867   32.2591  -73.3798 H         1 UNK         0.0685 
     76 H76       -79.5883   29.0293  -72.3359 H         1 UNK         0.1434 
     77 H77       -75.4607   29.0590  -71.2774 H         1 UNK         0.1329 
     78 H78       -77.0641   32.2091  -73.7076 H         1 UNK         0.1335 
     79 H79       -74.8013   32.3268  -73.0741 H         1 UNK         0.0680 
     80 H80       -74.3962   31.6080  -71.5411 H         1 UNK         0.0680 
     81 H81       -73.4256   28.3902  -71.9897 H         1 UNK         0.1032 
     82 H82       -72.9978   29.8391  -71.1198 H         1 UNK         0.1032 
     83 H83       -70.8162   29.9288  -72.3728 H         1 UNK         0.0461 
     84 H84       -69.2745   27.0861  -70.2759 H         1 UNK         0.3453 
     85 H85       -69.3839   27.1948  -72.0162 H         1 UNK         0.3453 
     86 H86       -70.5964   28.7547  -74.2239 H         1 UNK         0.2984 
     87 H87       -70.2025   26.7298  -75.4606 H         1 UNK         0.0554 
     88 H88       -71.2813   24.7397  -76.4628 H         1 UNK         0.0847 
     89 H89       -72.5745   24.7931  -75.2695 H         1 UNK         0.0847 
     90 H90       -70.9268   24.4450  -74.7681 H         1 UNK         0.0847 
     91 H91       -73.0569   26.9816  -76.2327 H         1 UNK         0.3141 
     92 H92       -72.5054   30.2499  -77.6262 H         1 UNK         0.0743 
     93 H93       -71.8746   28.6286  -79.4304 H         1 UNK         0.0784 
     94 H94       -73.2120   27.5819  -78.9678 H         1 UNK         0.0784 
     95 H95       -73.5290   29.1877  -79.6193 H         1 UNK         0.0784 
     96 H96       -74.4050   28.3293  -76.4239 H         1 UNK         0.3213 
     97 H97       -76.4077   30.1205  -75.4321 H         1 UNK         0.0855 
     98 H98       -77.4324   31.7753  -76.9004 H         1 UNK         0.0814 
     99 H99       -78.5721   30.4433  -76.7605 H         1 UNK         0.0814 
    100 H100      -77.5960   30.6191  -78.2124 H         1 UNK         0.0814 
    101 H101      -76.8488   27.9650  -75.6208 H         1 UNK         0.3105 
    102 H102      -78.0302   25.8173  -77.5968 H         1 UNK         0.0547 
    103 H103      -76.3455   25.5218  -79.3515 H         1 UNK         0.0837 
    104 H104      -75.0273   25.7420  -78.2128 H         1 UNK         0.0837 
    105 H105      -76.0409   24.3086  -78.1199 H         1 UNK         0.0837 
    106 H106      -77.5408   25.1421  -75.5802 H         1 UNK         0.3020 
    107 H107      -74.5053   24.8926  -73.7845 H         1 UNK         0.1245 
    108 H108      -75.4644   26.9855  -72.7593 H         1 UNK         0.0781 
    109 H109      -75.5154   25.5623  -71.7659 H         1 UNK         0.0781 
    110 H110      -76.9289   27.3433  -70.3812 H         1 UNK         0.0836 
    111 H111      -78.6556   27.5166  -70.5562 H         1 UNK         0.0836 
    112 H112      -77.2280   23.8716  -74.3360 H         1 UNK         0.3022 
    113 H113      -76.0377   20.5804  -73.8839 H         1 UNK         0.0747 
    114 H114      -78.1332   20.2181  -72.5902 H         1 UNK         0.0793 
    115 H115      -76.9351   21.0218  -71.5898 H         1 UNK         0.0793 
    116 H116      -78.2637   21.9494  -72.2720 H         1 UNK         0.0793 
    117 H117      -78.5688   21.6554  -74.7052 H         1 UNK         0.3047 
    118 H118      -77.7965   22.8100  -77.8409 H         1 UNK         0.0822 
    119 H119      -79.0780   21.0465  -78.9968 H         1 UNK         0.0807 
    120 H120      -78.9219   19.9722  -77.6054 H         1 UNK         0.0807 
    121 H121      -77.5044   20.4209  -78.5432 H         1 UNK         0.0807 
    122 H122      -80.3265   22.0646  -77.2106 H         1 UNK         0.2946 
    123 H123      -81.7056   23.9674  -76.7618 H         1 UNK         0.1144 
    124 H124      -83.0543   23.0840  -74.8331 H         1 UNK         0.0793 
    125 H125      -81.5736   22.7361  -73.9417 H         1 UNK         0.0793 
    126 H126      -81.9477   21.8575  -75.4176 H         1 UNK         0.0793 
    127 H127      -81.7711   25.1723  -74.1582 H         1 UNK         0.2896 
@<TRIPOS>BOND
     1    1    2 1    
     2    1   67 1    
     3    1   68 1    
     4    1   69 1    
     5    2    3 2    
     6    2    4 am   BACKBONE|DICT|INTERRES
     7    4    5 1    
     8    4   70 1    
     9    5    6 1    
    10    5   65 1    
    11    5   71 1    
    12    6    7 1    
    13    6   72 1    
    14    6   73 1    
    15    7    8 1    
    16    8    9 1    
    17    8   74 1    
    18    8   75 1    
    19    9   10 ar   
    20    9   14 ar   
    21   10   11 ar   
    22   10   76 1    
    23   11   12 ar   
    24   11   48 1    
    25   12   13 ar   
    26   12   77 1    
    27   13   14 ar   
    28   13   15 1    
    29   14   78 1    
    30   15   16 1    
    31   15   79 1    
    32   15   80 1    
    33   16   17 1    
    34   17   18 1    
    35   17   81 1    
    36   17   82 1    
    37   18   19 1    
    38   18   22 1    
    39   18   83 1    
    40   19   20 am   BACKBONE|DICT|INTERRES
    41   19   21 2    
    42   20   84 1    
    43   20   85 1    
    44   22   23 am   BACKBONE|DICT|INTERRES
    45   22   86 1    
    46   23   24 2    
    47   23   25 1    
    48   25   26 1    
    49   25   27 1    
    50   25   87 1    
    51   26   88 1    
    52   26   89 1    
    53   26   90 1    
    54   27   28 am   BACKBONE|DICT|INTERRES
    55   27   91 1    
    56   28   29 2    
    57   28   30 1    
    58   30   31 1    
    59   30   32 1    
    60   30   92 1    
    61   31   93 1    
    62   31   94 1    
    63   31   95 1    
    64   32   33 am   BACKBONE|DICT|INTERRES
    65   32   96 1    
    66   33   34 2    
    67   33   35 1    
    68   35   36 1    
    69   35   37 1    
    70   35   97 1    
    71   36   98 1    
    72   36   99 1    
    73   36  100 1    
    74   37   38 am   BACKBONE|DICT|INTERRES
    75   37  101 1    
    76   38   39 2    
    77   38   40 1    
    78   40   41 1    
    79   40   42 1    
    80   40  102 1    
    81   41  103 1    
    82   41  104 1    
    83   41  105 1    
    84   42   43 am   BACKBONE|DICT|INTERRES
    85   42  106 1    
    86   43   44 2    
    87   43   45 1    
    88   45   46 1    
    89   45   49 1    
    90   45  107 1    
    91   46   47 1    
    92   46  108 1    
    93   46  109 1    
    94   47   48 1    
    95   48  110 1    
    96   48  111 1    
    97   49   50 am   BACKBONE|DICT|INTERRES
    98   49  112 1    
    99   50   51 2    
   100   50   52 1    
   101   52   53 1    
   102   52   54 1    
   103   52  113 1    
   104   53  114 1    
   105   53  115 1    
   106   53  116 1    
   107   54   55 am   BACKBONE|DICT|INTERRES
   108   54  117 1    
   109   55   56 2    
   110   55   57 1    
   111   57   58 1    
   112   57   59 1    
   113   57  118 1    
   114   58  119 1    
   115   58  120 1    
   116   58  121 1    
   117   59   60 am   BACKBONE|DICT|INTERRES
   118   59  122 1    
   119   60   61 2    
   120   60   62 1    
   121   62   63 1    
   122   62   64 1    
   123   62  123 1    
   124   63  124 1    
   125   63  125 1    
   126   63  126 1    
   127   64   65 am   BACKBONE|DICT|INTERRES
   128   64  127 1    
   129   65   66 2    
@<TRIPOS>SUBSTRUCTURE
     1 UNK         1 GROUP             0       ****    0 ROOT    
